
     RDKit          3D

  7  6  0  0  0  0  0  0  0  0999 V2000
    3.4332    0.7590   -0.4812 C   0  0  0  0  0  0  0  0  0  0  0  0
    2.0274    0.6046    0.0793 C   0  0  0  0  0  0  0  0  0  0  0  0
    1.4270   -0.7527   -0.2886 C   0  0  0  0  0  0  0  0  0  0  0  0
    0.0568   -1.0049    0.3470 C   0  0  0  0  0  0  0  0  0  0  0  0
   -1.0354   -0.0652   -0.1686 C   0  0  0  0  0  0  0  0  0  0  0  0
   -2.4017   -0.4342    0.4111 C   0  0  0  0  0  0  0  0  0  0  0  0
   -3.4915    0.4978   -0.0942 C   0  0  0  0  0  0  0  0  0  0  0  0
  1  2  1  0
  2  3  1  0
  3  4  1  0
  4  5  1  0
  5  6  1  0
  6  7  1  0
M  END
