
     RDKit          3D

  6  5  0  0  0  0  0  0  0  0999 V2000
   -2.7386   -0.2845   -0.0127 C   0  0  0  0  0  0  0  0  0  0  0  0
   -1.3888    0.0379   -0.6355 C   0  0  0  0  0  0  0  0  0  0  0  0
   -0.4380    0.6612    0.3868 C   0  0  0  0  0  0  0  0  0  0  0  0
    0.8961    1.1109   -0.2167 C   0  0  0  0  0  0  0  0  0  0  0  0
    1.7374    0.0090   -0.8652 C   0  0  0  0  0  0  0  0  0  0  0  0
    2.1231   -1.1059    0.0941 C   0  0  0  0  0  0  0  0  0  0  0  0
  1  2  1  0
  2  3  1  0
  3  4  1  0
  4  5  1  0
  5  6  1  0
M  END
