
     RDKit          3D

  8  7  0  0  0  0  0  0  0  0999 V2000
    4.2122    0.6476    0.2605 C   0  0  0  0  0  0  0  0  0  0  0  0
    2.8830    0.2896   -0.3849 C   0  0  0  0  0  0  0  0  0  0  0  0
    1.7685    0.1746    0.6549 C   0  0  0  0  0  0  0  0  0  0  0  0
    0.4325   -0.1864    0.0014 C   0  0  0  0  0  0  0  0  0  0  0  0
   -0.6819   -0.2972    1.0443 C   0  0  0  0  0  0  0  0  0  0  0  0
   -2.0175   -0.7671    0.4607 C   0  0  0  0  0  0  0  0  0  0  0  0
   -2.6415    0.2338   -0.5126 C   0  0  0  0  0  0  0  0  0  0  0  0
   -4.0162   -0.2257   -0.9744 C   0  0  0  0  0  0  0  0  0  0  0  0
  1  2  1  0
  2  3  1  0
  3  4  1  0
  4  5  1  0
  5  6  1  0
  6  7  1  0
  7  8  1  0
M  END
