out_1113024
     RDKit          3D

 27 28  0  0  1  0  0  0  0  0999 V2000
    3.3169    7.1267    2.2043 N   0  0  0  0  0  0  0  0  0  0  0  0
    2.2352    6.6649    4.1310 O   0  0  0  0  0  0  0  0  0  0  0  0
    4.5488    8.7155    1.0784 O   0  0  0  0  0  0  0  0  0  0  0  0
    3.1286    5.6844    2.2336 C   0  0  2  0  0  0  0  0  0  0  0  0
    2.2923    5.4421    1.7421 H   0  0  0  0  0  0  0  0  0  0  0  0
    2.9287    5.4678    3.7275 C   0  0  2  0  0  0  0  0  0  0  0  0
    2.3822    4.6609    3.9030 H   0  0  0  0  0  0  0  0  0  0  0  0
    3.7956    5.3810    4.1964 H   0  0  0  0  0  0  0  0  0  0  0  0
    2.7876    7.7781    3.4084 C   0  0  1  0  0  0  0  0  0  0  0  0
    4.6222    6.3136    0.4950 C   0  0  1  0  0  0  0  0  0  0  0  0
    5.5803    6.3587    0.2501 H   0  0  0  0  0  0  0  0  0  0  0  0
    4.0849    6.2129   -0.3303 H   0  0  0  0  0  0  0  0  0  0  0  0
    5.5781    4.8838    2.3393 C   0  0  2  0  0  0  0  0  0  0  0  0
    5.8234    5.7039    2.8162 H   0  0  0  0  0  0  0  0  0  0  0  0
    6.3271    4.5970    1.7758 H   0  0  0  0  0  0  0  0  0  0  0  0
    5.3690    4.1797    2.9882 H   0  0  0  0  0  0  0  0  0  0  0  0
    3.9055    8.4274    4.2146 C   0  0  2  0  0  0  0  0  0  0  0  0
    3.5286    8.8468    5.0162 H   0  0  0  0  0  0  0  0  0  0  0  0
    4.3494    9.1086    3.6677 H   0  0  0  0  0  0  0  0  0  0  0  0
    4.5566    7.7448    4.4792 H   0  0  0  0  0  0  0  0  0  0  0  0
    1.6644    8.7405    3.0991 C   0  0  2  0  0  0  0  0  0  0  0  0
    0.9984    8.2940    2.5355 H   0  0  0  0  0  0  0  0  0  0  0  0
    2.0236    9.5197    2.6252 H   0  0  0  0  0  0  0  0  0  0  0  0
    1.2445    9.0308    3.9347 H   0  0  0  0  0  0  0  0  0  0  0  0
    4.3591    5.1484    1.4667 C   0  0  1  0  0  0  0  0  0  0  0  0
    4.1143    4.3234    0.9570 H   0  0  0  0  0  0  0  0  0  0  0  0
    4.1998    7.5573    1.2695 C   0  0  0  0  0  0  0  0  0  0  0  0
  1  4  1  0
  1  9  1  0
  3 27  2  0
  4  5  1  6
  4  6  1  0
  6  7  1  6
  6  2  1  0
  6  8  1  0
  9  2  1  1
  9 17  1  0
 10 27  1  0
 10 25  1  0
 10 11  1  6
 12 10  1  0
 13 14  1  1
 13 16  1  0
 15 13  1  0
 17 20  1  1
 17 18  1  0
 19 17  1  0
 21  9  1  0
 21 24  1  1
 22 21  1  0
 23 21  1  0
 25 26  1  6
 25  4  1  0
 25 13  1  0
 27  1  1  0
M  END
$$$$
