out_1001118
     RDKit          3D

 36 38  0  0  1  0  0  0  0  0999 V2000
    3.8380    7.4082    6.3270 O   0  0  0  0  0  0  0  0  0  0  0  0
    7.4513    7.9326    9.6327 O   0  0  0  0  0  0  0  0  0  0  0  0
    6.6563    7.1105   11.4994 O   0  0  0  0  0  0  0  0  0  0  0  0
    5.2936    6.9410    9.5898 C   0  0  0  0  0  0  0  0  0  0  0  0
    3.9235    7.0055    7.6272 C   0  0  0  0  0  0  0  0  0  0  0  0
    5.1096    7.3071    8.2620 C   0  0  0  0  0  0  0  0  0  0  0  0
    5.7841    7.7535    7.8033 H   0  0  0  0  0  0  0  0  0  0  0  0
    6.5559    7.3389   10.2841 C   0  0  0  0  0  0  0  0  0  0  0  0
    2.5900    7.2036    5.5889 C   0  0  2  0  0  0  0  0  0  0  0  0
    2.8950    6.3235    8.2926 C   0  0  0  0  0  0  0  0  0  0  0  0
    1.6122    6.0123    7.5585 C   0  0  2  0  0  0  0  0  0  0  0  0
    4.3075    6.2893   10.2729 C   0  0  0  0  0  0  0  0  0  0  0  0
    4.4264    6.0656   11.1671 H   0  0  0  0  0  0  0  0  0  0  0  0
    3.1357    5.9662    9.6222 C   0  0  0  0  0  0  0  0  0  0  0  0
    2.4798    5.4942   10.0870 H   0  0  0  0  0  0  0  0  0  0  0  0
    1.9538    5.9272    6.0630 C   0  0  2  0  0  0  0  0  0  0  0  0
    2.5604    5.1855    5.9103 H   0  0  0  0  0  0  0  0  0  0  0  0
    1.1426    5.7616    5.5555 H   0  0  0  0  0  0  0  0  0  0  0  0
    3.0327    7.1097    4.1296 C   0  0  2  0  0  0  0  0  0  0  0  0
    3.5429    7.8896    3.9005 H   0  0  0  0  0  0  0  0  0  0  0  0
    2.2595    7.0548    3.5637 H   0  0  0  0  0  0  0  0  0  0  0  0
    3.5721    6.3259    4.0105 H   0  0  0  0  0  0  0  0  0  0  0  0
    1.6994    8.4069    5.8092 C   0  0  2  0  0  0  0  0  0  0  0  0
    0.9428    8.3591    5.2029 H   0  0  0  0  0  0  0  0  0  0  0  0
    2.1961    9.2138    5.6026 H   0  0  0  0  0  0  0  0  0  0  0  0
    0.6150    7.2203    7.7381 C   0  0  1  0  0  0  0  0  0  0  0  0
   -0.2052    7.0302    7.2531 H   0  0  0  0  0  0  0  0  0  0  0  0
    0.3908    7.3119    8.6768 H   0  0  0  0  0  0  0  0  0  0  0  0
    1.1820    8.4913    7.2486 C   0  0  1  0  0  0  0  0  0  0  0  0
    1.9116    8.7547    7.8302 H   0  0  0  0  0  0  0  0  0  0  0  0
    0.5007    9.1804    7.2980 H   0  0  0  0  0  0  0  0  0  0  0  0
    0.9750    4.7088    7.9986 C   0  0  2  0  0  0  0  0  0  0  0  0
    1.6456    4.0260    8.0548 H   0  0  0  0  0  0  0  0  0  0  0  0
    0.3057    4.4486    7.3609 H   0  0  0  0  0  0  0  0  0  0  0  0
    0.5658    4.8274    8.8587 H   0  0  0  0  0  0  0  0  0  0  0  0
    7.4244    8.8255    9.5436 H   0  0  0  0  0  0  0  0  0  0  0  0
  1  5  1  0
  2  8  1  0
  4 12  1  0
  4  8  1  0
  5  6  1  0
  5 10  2  0
  6  4  2  0
  7  6  1  0
  8  3  2  0
  9 19  1  0
  9 23  1  0
  9 16  1  0
  9  1  1  1
 10 14  1  0
 11 26  1  0
 11 32  1  0
 11 10  1  1
 12 13  1  0
 14 15  1  0
 14 12  2  0
 16 11  1  0
 16 17  1  1
 18 16  1  0
 19 20  1  6
 21 19  1  0
 22 19  1  0
 23 29  1  0
 23 24  1  6
 25 23  1  0
 26 28  1  1
 27 26  1  0
 29 31  1  6
 29 26  1  0
 29 30  1  0
 32 33  1  1
 32 35  1  0
 34 32  1  0
 36  2  1  0
M  END
$$$$
