out_1003433
     RDKit          3D

 72 76  0  0  1  0  0  0  0  0999 V2000
    5.4711    9.1220    5.5475 S   0  0  1  0  0  0  0  0  0  0  0  0
    5.7635   10.0999    6.5787 O   0  0  0  0  0  0  0  0  0  0  0  0
    5.9872    9.4009    4.2281 O   0  0  0  0  0  0  0  0  0  0  0  0
    3.9184    6.6863    9.7542 O   0  0  0  0  0  0  0  0  0  0  0  0
    7.3889    5.6995    5.5390 N   0  0  0  0  0  0  0  0  0  0  0  0
    4.6549    8.7224   10.4335 N   0  0  0  0  0  0  0  0  0  0  0  0
    6.9513    6.9595    5.3019 C   0  0  0  0  0  0  0  0  0  0  0  0
    7.3257    7.4458    4.5767 H   0  0  0  0  0  0  0  0  0  0  0  0
    6.0033    7.5477    6.0586 C   0  0  0  0  0  0  0  0  0  0  0  0
    5.3957    6.9161    7.3020 C   0  0  1  0  0  0  0  0  0  0  0  0
    4.4012    6.9802    7.2175 H   0  0  0  0  0  0  0  0  0  0  0  0
    5.7610    5.4524    7.2773 C   0  0  0  0  0  0  0  0  0  0  0  0
    5.2914    4.8652    7.8578 H   0  0  0  0  0  0  0  0  0  0  0  0
    6.7012    4.9347    6.4916 C   0  0  0  0  0  0  0  0  0  0  0  0
    6.9141    4.0131    6.5790 H   0  0  0  0  0  0  0  0  0  0  0  0
    8.5096    5.1369    4.7962 C   0  0  2  0  0  0  0  0  0  0  0  0
    8.5965    5.6216    3.9373 H   0  0  0  0  0  0  0  0  0  0  0  0
    8.3089    4.1903    4.5872 H   0  0  0  0  0  0  0  0  0  0  0  0
    9.8381    5.2030    5.5297 C   0  0  0  0  0  0  0  0  0  0  0  0
    9.9821    5.7853    6.7842 C   0  0  0  0  0  0  0  0  0  0  0  0
    9.2269    6.1636    7.2190 H   0  0  0  0  0  0  0  0  0  0  0  0
   11.2225    5.8168    7.4043 C   0  0  0  0  0  0  0  0  0  0  0  0
   11.3128    6.2254    8.2571 H   0  0  0  0  0  0  0  0  0  0  0  0
   12.3334    5.2553    6.7878 C   0  0  0  0  0  0  0  0  0  0  0  0
   13.1811    5.2756    7.2165 H   0  0  0  0  0  0  0  0  0  0  0  0
   12.1941    4.6658    5.5424 C   0  0  0  0  0  0  0  0  0  0  0  0
   12.9482    4.2748    5.1171 H   0  0  0  0  0  0  0  0  0  0  0  0
   10.9604    4.6435    4.9144 C   0  0  0  0  0  0  0  0  0  0  0  0
   10.8763    4.2439    4.0566 H   0  0  0  0  0  0  0  0  0  0  0  0
    3.7108    8.9946    5.4899 C   0  0  0  0  0  0  0  0  0  0  0  0
    3.1000    8.5489    4.3268 C   0  0  0  0  0  0  0  0  0  0  0  0
    3.6149    8.3401    3.5563 H   0  0  0  0  0  0  0  0  0  0  0  0
    1.7160    8.4150    4.3154 C   0  0  0  0  0  0  0  0  0  0  0  0
    1.2776    8.1237    3.5245 H   0  0  0  0  0  0  0  0  0  0  0  0
    0.9725    8.7023    5.4447 C   0  0  0  0  0  0  0  0  0  0  0  0
    0.0284    8.5974    5.4246 H   0  0  0  0  0  0  0  0  0  0  0  0
    1.5879    9.1409    6.6055 C   0  0  0  0  0  0  0  0  0  0  0  0
    1.0686    9.3337    7.3772 H   0  0  0  0  0  0  0  0  0  0  0  0
    2.9717    9.2983    6.6361 C   0  0  0  0  0  0  0  0  0  0  0  0
    3.4056    9.6070    7.4230 H   0  0  0  0  0  0  0  0  0  0  0  0
    5.8116    7.6871    8.6085 C   0  0  1  0  0  0  0  0  0  0  0  0
    5.9179    8.6479    8.3521 H   0  0  0  0  0  0  0  0  0  0  0  0
    4.6885    7.6330    9.6457 C   0  0  0  0  0  0  0  0  0  0  0  0
    3.6224    8.9631   11.4364 C   0  0  2  0  0  0  0  0  0  0  0  0
    3.9998    9.5235   12.1600 H   0  0  0  0  0  0  0  0  0  0  0  0
    3.3510    8.0980   11.8342 H   0  0  0  0  0  0  0  0  0  0  0  0
    2.3946    9.6523   10.8657 C   0  0  0  0  0  0  0  0  0  0  0  0
    2.5112   10.8361   10.1498 C   0  0  0  0  0  0  0  0  0  0  0  0
    3.3699   11.2133    9.9991 H   0  0  0  0  0  0  0  0  0  0  0  0
    1.3794   11.4741    9.6515 C   0  0  0  0  0  0  0  0  0  0  0  0
    1.4680   12.2862    9.1666 H   0  0  0  0  0  0  0  0  0  0  0  0
    0.1225   10.9271    9.8610 C   0  0  0  0  0  0  0  0  0  0  0  0
   -0.6508   11.3618    9.5210 H   0  0  0  0  0  0  0  0  0  0  0  0
    0.0019    9.7484   10.5660 C   0  0  0  0  0  0  0  0  0  0  0  0
   -0.8560    9.3671   10.7112 H   0  0  0  0  0  0  0  0  0  0  0  0
    1.1325    9.1198   11.0627 C   0  0  0  0  0  0  0  0  0  0  0  0
    1.0394    8.3082   11.5477 H   0  0  0  0  0  0  0  0  0  0  0  0
    7.1238    7.2579    9.2370 C   0  0  0  0  0  0  0  0  0  0  0  0
    7.2456    6.0733    9.9658 C   0  0  0  0  0  0  0  0  0  0  0  0
    6.4997    5.4896   10.0401 H   0  0  0  0  0  0  0  0  0  0  0  0
    8.4463    5.7362   10.5850 C   0  0  0  0  0  0  0  0  0  0  0  0
    8.5120    4.9204   11.0673 H   0  0  0  0  0  0  0  0  0  0  0  0
    9.5559    6.5821   10.5065 C   0  0  0  0  0  0  0  0  0  0  0  0
    9.4328    7.7566    9.7763 C   0  0  0  0  0  0  0  0  0  0  0  0
   10.1777    8.3418    9.7055 H   0  0  0  0  0  0  0  0  0  0  0  0
    8.2353    8.0930    9.1451 C   0  0  0  0  0  0  0  0  0  0  0  0
    8.1770    8.9000    8.6474 H   0  0  0  0  0  0  0  0  0  0  0  0
   10.8375    6.2304   11.2234 C   0  0  2  0  0  0  0  0  0  0  0  0
   11.5783    6.7447   10.8397 H   0  0  0  0  0  0  0  0  0  0  0  0
   11.0173    5.2725   11.1205 H   0  0  0  0  0  0  0  0  0  0  0  0
   10.7491    6.4457   12.1754 H   0  0  0  0  0  0  0  0  0  0  0  0
    5.2370    9.4649   10.2038 H   0  0  0  0  0  0  0  0  0  0  0  0
  1  9  1  1
  1  2  2  0
  3  1  2  0
  5 14  1  0
  6 44  1  0
  7  5  1  0
  7  9  2  0
  8  7  1  0
  9 10  1  0
 10 11  1  6
 10 41  1  0
 12 10  1  0
 12 13  1  0
 14 15  1  0
 14 12  2  0
 16 19  1  0
 16  5  1  0
 16 17  1  6
 18 16  1  0
 19 20  2  0
 20 21  1  0
 20 22  1  0
 22 23  1  0
 24 25  1  0
 24 22  2  0
 26 24  1  0
 27 26  1  0
 28 19  1  0
 28 26  2  0
 29 28  1  0
 30  1  1  0
 30 39  1  0
 31 30  2  0
 32 31  1  0
 33 31  1  0
 33 35  2  0
 34 33  1  0
 35 37  1  0
 36 35  1  0
 37 39  2  0
 37 38  1  0
 39 40  1  0
 41 42  1  6
 41 58  1  0
 41 43  1  0
 43  4  2  0
 43  6  1  0
 44 46  1  1
 44 45  1  0
 47 56  1  0
 47 44  1  0
 48 47  2  0
 49 48  1  0
 50 52  2  0
 50 48  1  0
 51 50  1  0
 52 54  1  0
 53 52  1  0
 54 55  1  0
 54 56  2  0
 56 57  1  0
 58 59  2  0
 59 60  1  0
 59 61  1  0
 61 62  1  0
 63 61  2  0
 63 68  1  0
 64 63  1  0
 65 64  1  0
 66 58  1  0
 66 64  2  0
 67 66  1  0
 68 71  1  1
 69 68  1  0
 70 68  1  0
 72  6  1  0
M  END
$$$$
