out_1407848
     RDKit          3D

 45 47  0  0  1  0  0  0  0  0999 V2000
    4.3861    8.6834    7.3447 O   0  0  0  0  0  0  0  0  0  0  0  0
    7.4770   12.5106    5.7482 O   0  0  0  0  0  0  0  0  0  0  0  0
    6.5691   11.9679    3.8327 O   0  0  0  0  0  0  0  0  0  0  0  0
    5.1831    9.8507    4.9782 N   0  0  0  0  0  0  0  0  0  0  0  0
    6.8630   11.6949    5.1174 C   0  0  0  0  0  0  0  0  0  0  0  0
    6.3470   10.3880    5.6947 C   0  0  1  0  0  0  0  0  0  0  0  0
    5.9830   10.5499    7.1874 C   0  0  2  0  0  0  0  0  0  0  0  0
    5.6295    9.1986    7.8189 C   0  0  1  0  0  0  0  0  0  0  0  0
    5.5270    9.2654    9.3285 C   0  0  2  0  0  0  0  0  0  0  0  0
    4.8880   11.5881    7.3798 C   0  0  2  0  0  0  0  0  0  0  0  0
    6.1131   10.8743    2.9566 C   0  0  1  0  0  0  0  0  0  0  0  0
    5.0788   10.0719    3.7395 C   0  0  0  0  0  0  0  0  0  0  0  0
    3.8126    9.6767    3.0144 C   0  0  2  0  0  0  0  0  0  0  0  0
    3.5245   10.6486    1.8824 C   0  0  1  0  0  0  0  0  0  0  0  0
    4.0164   12.0457    2.3020 C   0  0  2  0  0  0  0  0  0  0  0  0
    5.4169   11.5890    1.8025 C   0  0  2  0  0  0  0  0  0  0  0  0
    4.6523   10.6256    0.8241 C   0  0  2  0  0  0  0  0  0  0  0  0
    4.2592   11.3895   -0.4478 C   0  0  2  0  0  0  0  0  0  0  0  0
    5.2070    9.2828    0.3811 C   0  0  2  0  0  0  0  0  0  0  0  0
    7.3539   10.0737    2.5848 C   0  0  2  0  0  0  0  0  0  0  0  0
    4.3210    8.8245    6.5403 H   0  0  0  0  0  0  0  0  0  0  0  0
    7.0685    9.7278    5.6318 H   0  0  0  0  0  0  0  0  0  0  0  0
    6.7825   10.8832    7.6464 H   0  0  0  0  0  0  0  0  0  0  0  0
    6.3348    8.5582    7.5874 H   0  0  0  0  0  0  0  0  0  0  0  0
    5.4416    8.3775    9.6828 H   0  0  0  0  0  0  0  0  0  0  0  0
    4.7573    9.7837    9.5750 H   0  0  0  0  0  0  0  0  0  0  0  0
    6.3173    9.6779    9.6854 H   0  0  0  0  0  0  0  0  0  0  0  0
    5.1730   12.4260    7.0087 H   0  0  0  0  0  0  0  0  0  0  0  0
    4.7100   11.6962    8.3175 H   0  0  0  0  0  0  0  0  0  0  0  0
    4.0884   11.2968    6.9343 H   0  0  0  0  0  0  0  0  0  0  0  0
    3.0686    9.6732    3.6378 H   0  0  0  0  0  0  0  0  0  0  0  0
    3.9094    8.7805    2.6562 H   0  0  0  0  0  0  0  0  0  0  0  0
    2.6128   10.6157    1.5244 H   0  0  0  0  0  0  0  0  0  0  0  0
    3.9690   12.2145    3.2567 H   0  0  0  0  0  0  0  0  0  0  0  0
    3.6295   12.7743    1.7926 H   0  0  0  0  0  0  0  0  0  0  0  0
    5.9489   12.2870    1.3653 H   0  0  0  0  0  0  0  0  0  0  0  0
    3.9083   12.2501   -0.2092 H   0  0  0  0  0  0  0  0  0  0  0  0
    3.5904   10.8927   -0.9252 H   0  0  0  0  0  0  0  0  0  0  0  0
    5.0321   11.5025   -1.0060 H   0  0  0  0  0  0  0  0  0  0  0  0
    5.3541    8.7282    1.1510 H   0  0  0  0  0  0  0  0  0  0  0  0
    6.0385    9.4164   -0.0796 H   0  0  0  0  0  0  0  0  0  0  0  0
    4.5803    8.8554   -0.2066 H   0  0  0  0  0  0  0  0  0  0  0  0
    7.8856   10.5777    1.9645 H   0  0  0  0  0  0  0  0  0  0  0  0
    7.0902    9.2441    2.1801 H   0  0  0  0  0  0  0  0  0  0  0  0
    7.8681    9.8954    3.3760 H   0  0  0  0  0  0  0  0  0  0  0  0
  1  8  1  0
  3  5  1  0
  4  6  1  0
  5  6  1  0
  5  2  2  0
  6 22  1  1
  6  7  1  0
  7 10  1  0
  7 23  1  1
  7  8  1  0
  8 24  1  1
  8  9  1  0
  9 26  1  6
  9 25  1  0
  9 27  1  0
 10 29  1  1
 11 20  1  0
 11 12  1  0
 11  3  1  1
 12  4  2  0
 13 31  1  1
 13 12  1  0
 14 33  1  6
 14 15  1  0
 14 13  1  0
 15 34  1  1
 16 36  1  6
 16 15  1  0
 16 11  1  0
 17 16  1  1
 17 14  1  0
 18 37  1  1
 18 17  1  0
 19 17  1  0
 19 40  1  1
 20 45  1  1
 21  1  1  0
 28 10  1  0
 30 10  1  0
 32 13  1  0
 35 15  1  0
 38 18  1  0
 39 18  1  0
 41 19  1  0
 42 19  1  0
 43 20  1  0
 44 20  1  0
M  END
$$$$
