out_1157848
     RDKit          3D

 52 52  0  0  1  0  0  0  0  0999 V2000
    2.9226    9.0506   11.6089 O   0  0  0  0  0  0  0  0  0  0  0  0
    5.6227    9.4343    6.1036 O   0  0  0  0  0  0  0  0  0  0  0  0
    2.0683   10.1106    6.3849 O   0  0  0  0  0  0  0  0  0  0  0  0
    0.8870    8.2793    6.8956 O   0  0  0  0  0  0  0  0  0  0  0  0
   -1.7253   10.5427   11.8857 O   0  0  0  0  0  0  0  0  0  0  0  0
    1.8249   10.9850   11.3698 O   0  0  0  0  0  0  0  0  0  0  0  0
    2.9260   10.2164   11.3181 C   0  0  0  0  0  0  0  0  0  0  0  0
    4.1173   10.9926   10.8307 C   0  0  2  0  0  0  0  0  0  0  0  0
    4.9274   10.4599   10.9521 H   0  0  0  0  0  0  0  0  0  0  0  0
    4.2154   11.7316   11.3993 H   0  0  0  0  0  0  0  0  0  0  0  0
    3.9376   11.4147    9.3949 C   0  0  0  0  0  0  0  0  0  0  0  0
    3.2570   12.0293    9.2317 H   0  0  0  0  0  0  0  0  0  0  0  0
    4.7122   11.0021    8.4131 C   0  0  0  0  0  0  0  0  0  0  0  0
    5.4444   10.4281    8.5961 H   0  0  0  0  0  0  0  0  0  0  0  0
    4.5875   11.4201    6.9779 C   0  0  2  0  0  0  0  0  0  0  0  0
    3.8430   11.9338    6.8907 H   0  0  0  0  0  0  0  0  0  0  0  0
    4.4317   10.2311    6.0430 C   0  0  2  0  0  0  0  0  0  0  0  0
    4.3249   10.5718    5.1372 H   0  0  0  0  0  0  0  0  0  0  0  0
    3.2818    9.3063    6.3964 C   0  0  1  0  0  0  0  0  0  0  0  0
    3.3855    8.9501    7.2847 H   0  0  0  0  0  0  0  0  0  0  0  0
    3.2219    8.6011    5.7187 H   0  0  0  0  0  0  0  0  0  0  0  0
    0.9354    9.4602    6.7279 C   0  0  0  0  0  0  0  0  0  0  0  0
   -0.2111   10.4179    6.8995 C   0  0  1  0  0  0  0  0  0  0  0  0
   -0.2085   10.9516    6.0957 H   0  0  0  0  0  0  0  0  0  0  0  0
   -1.0048    9.9006    6.9699 H   0  0  0  0  0  0  0  0  0  0  0  0
   -0.0196   11.2949    8.1094 C   0  0  0  0  0  0  0  0  0  0  0  0
    0.7046   11.8959    8.1048 H   0  0  0  0  0  0  0  0  0  0  0  0
   -0.7848   11.2311    9.1812 C   0  0  0  0  0  0  0  0  0  0  0  0
   -1.5600   10.6098    9.1435 H   0  0  0  0  0  0  0  0  0  0  0  0
   -0.6569   12.1138   10.3876 C   0  0  2  0  0  0  0  0  0  0  0  0
    0.1154   12.6205   10.3085 H   0  0  0  0  0  0  0  0  0  0  0  0
   -0.5277   11.3038   11.6760 C   0  0  2  0  0  0  0  0  0  0  0  0
   -0.3991   11.9184   12.3718 H   0  0  0  0  0  0  0  0  0  0  0  0
    0.5930   10.2869   11.6779 C   0  0  1  0  0  0  0  0  0  0  0  0
    0.4423    9.5701   10.9602 H   0  0  0  0  0  0  0  0  0  0  0  0
    0.7108    9.8226   12.5613 H   0  0  0  0  0  0  0  0  0  0  0  0
    5.7880   12.2838    6.5659 C   0  0  1  0  0  0  0  0  0  0  0  0
    5.8218   13.1173    7.0782 H   0  0  0  0  0  0  0  0  0  0  0  0
    6.5789   11.7932    6.6772 H   0  0  0  0  0  0  0  0  0  0  0  0
    5.7646   12.4501    5.6545 H   0  0  0  0  0  0  0  0  0  0  0  0
    6.0365    8.8834    4.8805 C   0  0  2  0  0  0  0  0  0  0  0  0
    5.3527    8.2111    4.4715 H   0  0  0  0  0  0  0  0  0  0  0  0
    6.8548    8.4677    4.9828 H   0  0  0  0  0  0  0  0  0  0  0  0
    5.9306    9.5865    4.2409 H   0  0  0  0  0  0  0  0  0  0  0  0
   -1.8591   13.0526   10.4880 C   0  0  1  0  0  0  0  0  0  0  0  0
   -2.7099   12.5322   10.5100 H   0  0  0  0  0  0  0  0  0  0  0  0
   -1.8218   13.5073   11.3291 H   0  0  0  0  0  0  0  0  0  0  0  0
   -1.8314   13.6818    9.7430 H   0  0  0  0  0  0  0  0  0  0  0  0
   -2.2905   10.6755   13.1709 C   0  0  2  0  0  0  0  0  0  0  0  0
   -1.6399   10.5102   13.8757 H   0  0  0  0  0  0  0  0  0  0  0  0
   -3.0444    9.9868   13.2641 H   0  0  0  0  0  0  0  0  0  0  0  0
   -2.6362   11.6085   13.2039 H   0  0  0  0  0  0  0  0  0  0  0  0
  3 19  1  0
  3 22  1  0
  5 49  1  0
  6 34  1  0
  7  6  1  0
  7  1  2  0
  8  9  1  6
  8  7  1  0
  8 10  1  0
 11  8  1  0
 12 11  1  0
 13 14  1  0
 13 11  2  0
 15 16  1  1
 15 13  1  0
 17 18  1  6
 17  2  1  0
 17 19  1  0
 17 15  1  0
 19 20  1  1
 21 19  1  0
 22  4  2  0
 22 23  1  0
 23 25  1  1
 23 26  1  0
 24 23  1  0
 26 28  2  0
 27 26  1  0
 28 30  1  0
 29 28  1  0
 30 31  1  6
 30 45  1  0
 30 32  1  0
 32 34  1  0
 32  5  1  0
 32 33  1  1
 34 36  1  1
 35 34  1  0
 37 39  1  6
 37 15  1  0
 37 38  1  0
 40 37  1  0
 41 43  1  1
 41  2  1  0
 42 41  1  0
 44 41  1  0
 45 46  1  1
 45 47  1  0
 48 45  1  0
 49 52  1  1
 49 51  1  0
 49 50  1  0
M  END
$$$$
