out_1001205
     RDKit          3D

 41 43  0  0  1  0  0  0  0  0999 V2000
    6.1663    5.7409   10.3924 O   0  0  0  0  0  0  0  0  0  0  0  0
    5.5199    5.2137   10.2929 H   0  0  0  0  0  0  0  0  0  0  0  0
    3.7322    6.5585    9.4303 O   0  0  0  0  0  0  0  0  0  0  0  0
    3.2729    6.7512    8.7536 H   0  0  0  0  0  0  0  0  0  0  0  0
    4.0606    8.6596   10.3874 O   0  0  0  0  0  0  0  0  0  0  0  0
    6.7141    9.2306    6.2597 O   0  0  0  0  0  0  0  0  0  0  0  0
    4.6640    7.5835    9.6715 C   0  0  1  0  0  0  0  0  0  0  0  0
    8.1422    7.1838    8.7161 C   0  0  2  0  0  0  0  0  0  0  0  0
    8.7790    6.7096    9.2908 H   0  0  0  0  0  0  0  0  0  0  0  0
    8.6025    7.5025    7.9114 H   0  0  0  0  0  0  0  0  0  0  0  0
    7.4184    6.5760    8.4581 H   0  0  0  0  0  0  0  0  0  0  0  0
    7.0293    9.6280    7.3736 C   0  0  0  0  0  0  0  0  0  0  0  0
    5.6817    7.0261   10.6879 C   0  0  2  0  0  0  0  0  0  0  0  0
    5.2426    8.1475    8.3882 C   0  0  2  0  0  0  0  0  0  0  0  0
    4.5374    8.6490    7.9074 H   0  0  0  0  0  0  0  0  0  0  0  0
    5.5329    7.4006    7.8080 H   0  0  0  0  0  0  0  0  0  0  0  0
    7.5589    8.3785    9.4774 C   0  0  2  0  0  0  0  0  0  0  0  0
    6.9027    7.9569   10.8033 C   0  0  2  0  0  0  0  0  0  0  0  0
    7.5867    7.5057   11.3580 H   0  0  0  0  0  0  0  0  0  0  0  0
    6.6235    8.7761   11.2855 H   0  0  0  0  0  0  0  0  0  0  0  0
    6.4304    9.0739    8.6410 C   0  0  1  0  0  0  0  0  0  0  0  0
    6.0958    9.8492    9.1767 H   0  0  0  0  0  0  0  0  0  0  0  0
    8.0904   10.6640    7.5984 C   0  0  2  0  0  0  0  0  0  0  0  0
    7.6948   11.4590    8.0376 H   0  0  0  0  0  0  0  0  0  0  0  0
    8.4712   10.9476    6.7307 H   0  0  0  0  0  0  0  0  0  0  0  0
    3.9246    8.2701   11.7677 C   0  0  2  0  0  0  0  0  0  0  0  0
    2.9920    8.0051   11.9651 H   0  0  0  0  0  0  0  0  0  0  0  0
    4.1760    9.0170   12.3668 H   0  0  0  0  0  0  0  0  0  0  0  0
    9.2005   10.0792    8.4864 C   0  0  1  0  0  0  0  0  0  0  0  0
    9.7024    9.4003    7.9678 H   0  0  0  0  0  0  0  0  0  0  0  0
    9.8327   10.8009    8.7294 H   0  0  0  0  0  0  0  0  0  0  0  0
    4.8517    7.1115   11.9540 C   0  0  0  0  0  0  0  0  0  0  0  0
    8.6699    9.4298    9.7713 C   0  0  2  0  0  0  0  0  0  0  0  0
    8.2614   10.1537   10.3278 H   0  0  0  0  0  0  0  0  0  0  0  0
    4.9090    6.2584   12.9672 C   0  0  0  0  0  0  0  0  0  0  0  0
    4.3072    6.3460   13.6965 H   0  0  0  0  0  0  0  0  0  0  0  0
    5.5513    5.5587   12.9645 H   0  0  0  0  0  0  0  0  0  0  0  0
    9.8512    8.8582   10.5521 C   0  0  2  0  0  0  0  0  0  0  0  0
    9.5231    8.4103   11.3594 H   0  0  0  0  0  0  0  0  0  0  0  0
   10.4575    9.5853   10.8060 H   0  0  0  0  0  0  0  0  0  0  0  0
   10.3309    8.2132    9.9920 H   0  0  0  0  0  0  0  0  0  0  0  0
  2  1  1  0
  4  3  1  0
  5 26  1  0
  6 12  2  0
  7  3  1  6
  7  5  1  0
  7 13  1  0
  8  9  1  1
 10  8  1  0
 11  8  1  0
 12 23  1  0
 12 21  1  0
 13  1  1  6
 13 18  1  0
 13 32  1  0
 14 21  1  0
 14  7  1  0
 14 15  1  6
 16 14  1  0
 17  8  1  0
 17 33  1  0
 17 18  1  0
 18 20  1  1
 18 19  1  0
 21 22  1  1
 17 21  1  6
 23 24  1  1
 23 29  1  0
 25 23  1  0
 26 32  1  0
 26 27  1  6
 26 28  1  0
 29 31  1  1
 29 33  1  0
 30 29  1  0
 32 35  2  0
 33 34  1  1
 33 38  1  0
 35 36  1  0
 37 35  1  0
 38 40  1  1
 38 39  1  0
 41 38  1  0
M  END
$$$$
