out_1478485
     RDKit          3D

 50 53  0  0  0  0  0  0  0  0999 V2000
    1.6129    9.8022    9.7211 O   0  0  0  0  0  0  0  0  0  0  0  0
    0.1778    4.6010    7.9690 O   0  0  0  0  0  0  0  0  0  0  0  0
    1.8888    3.6078    9.7759 O   0  0  0  0  0  0  0  0  0  0  0  0
    1.9500   14.8076    8.5125 O   0  0  0  0  0  0  0  0  0  0  0  0
    1.0525   15.0288    6.3831 O   0  0  0  0  0  0  0  0  0  0  0  0
   -0.2291    8.5582    7.5180 N   0  0  0  0  0  0  0  0  0  0  0  0
    1.3265    6.7068    7.9441 C   0  0  0  0  0  0  0  0  0  0  0  0
    2.4369    7.4797    8.3307 C   0  0  0  0  0  0  0  0  0  0  0  0
    1.4508   11.1994    7.8195 C   0  0  0  0  0  0  0  0  0  0  0  0
    0.8714   11.3310    6.5385 C   0  0  0  0  0  0  0  0  0  0  0  0
    1.1921    5.4125    8.4345 C   0  0  0  0  0  0  0  0  0  0  0  0
    1.1132   13.7009    6.7284 C   0  0  0  0  0  0  0  0  0  0  0  0
    1.7750    9.9073    8.5145 C   0  0  0  0  0  0  0  0  0  0  0  0
    2.6031    8.8699    7.7747 C   0  0  2  0  0  0  0  0  0  0  0  0
    2.3405    8.8687    6.8206 H   0  0  0  0  0  0  0  0  0  0  0  0
    3.5585    9.1243    7.8248 H   0  0  0  0  0  0  0  0  0  0  0  0
    3.1868    5.6762    9.7620 C   0  0  0  0  0  0  0  0  0  0  0  0
    3.8096    5.3418   10.3971 H   0  0  0  0  0  0  0  0  0  0  0  0
    3.3394    6.9555    9.2371 C   0  0  0  0  0  0  0  0  0  0  0  0
    4.0821    7.4822    9.5086 H   0  0  0  0  0  0  0  0  0  0  0  0
    0.3109    7.2956    6.9926 C   0  0  2  0  0  0  0  0  0  0  0  0
    0.7376    7.4594    6.1147 H   0  0  0  0  0  0  0  0  0  0  0  0
   -0.4283    6.6512    6.8587 H   0  0  0  0  0  0  0  0  0  0  0  0
    1.8195   12.3393    8.5611 C   0  0  0  0  0  0  0  0  0  0  0  0
    2.1811   12.2543    9.4350 H   0  0  0  0  0  0  0  0  0  0  0  0
    1.6443   13.5709    7.9921 C   0  0  0  0  0  0  0  0  0  0  0  0
    2.1221    4.8939    9.3528 C   0  0  0  0  0  0  0  0  0  0  0  0
    0.7013   12.6220    5.9951 C   0  0  0  0  0  0  0  0  0  0  0  0
    0.3089   12.7398    5.1381 H   0  0  0  0  0  0  0  0  0  0  0  0
   -0.7806    9.3954    6.4587 C   0  0  2  0  0  0  0  0  0  0  0  0
   -1.4357   10.0268    6.8495 H   0  0  0  0  0  0  0  0  0  0  0  0
   -1.2598    8.8231    5.8085 H   0  0  0  0  0  0  0  0  0  0  0  0
    0.3030   10.1846    5.7298 C   0  0  2  0  0  0  0  0  0  0  0  0
    1.0397    9.5684    5.4890 H   0  0  0  0  0  0  0  0  0  0  0  0
   -0.0754   10.5437    4.8884 H   0  0  0  0  0  0  0  0  0  0  0  0
   -1.1863    8.3087    8.5860 C   0  0  2  0  0  0  0  0  0  0  0  0
   -1.9404    7.7921    8.2336 H   0  0  0  0  0  0  0  0  0  0  0  0
   -1.5121    9.1629    8.9394 H   0  0  0  0  0  0  0  0  0  0  0  0
   -0.7500    7.8035    9.3035 H   0  0  0  0  0  0  0  0  0  0  0  0
    1.4890   15.7548    7.5386 C   0  0  1  0  0  0  0  0  0  0  0  0
    0.7406   16.2867    7.9089 H   0  0  0  0  0  0  0  0  0  0  0  0
    2.2209   16.3738    7.2938 H   0  0  0  0  0  0  0  0  0  0  0  0
   -0.8999    4.4247    8.9000 C   0  0  2  0  0  0  0  0  0  0  0  0
   -1.5057    3.7283    8.5701 H   0  0  0  0  0  0  0  0  0  0  0  0
   -1.3912    5.2676    8.9946 H   0  0  0  0  0  0  0  0  0  0  0  0
   -0.5390    4.1581    9.7714 H   0  0  0  0  0  0  0  0  0  0  0  0
    2.8244    3.0520   10.6851 C   0  0  2  0  0  0  0  0  0  0  0  0
    3.7226    3.0914   10.2946 H   0  0  0  0  0  0  0  0  0  0  0  0
    2.5872    2.1190   10.8677 H   0  0  0  0  0  0  0  0  0  0  0  0
    2.8102    3.5626   11.5209 H   0  0  0  0  0  0  0  0  0  0  0  0
  2 11  1  0
  2 43  1  0
  3 47  1  0
  5 12  1  0
  5 40  1  0
  6 36  1  0
  7  8  2  0
  7 11  1  0
  8 19  1  0
  9 13  1  0
  9 24  2  0
 10  9  1  0
 11 27  2  0
 12 26  2  0
 13  1  2  0
 14 16  1  6
 14  8  1  0
 14 13  1  0
 15 14  1  0
 17 18  1  0
 19 20  1  0
 19 17  2  0
 21  6  1  0
 21  7  1  0
 21 22  1  6
 23 21  1  0
 24 25  1  0
 26  4  1  0
 26 24  1  0
 27 17  1  0
 27  3  1  0
 28 10  2  0
 28 12  1  0
 29 28  1  0
 30 31  1  1
 30  6  1  0
 32 30  1  0
 33 30  1  0
 33 10  1  0
 33 34  1  6
 35 33  1  0
 36 38  1  1
 36 39  1  0
 37 36  1  0
 40 41  1  1
 40  4  1  0
 42 40  1  0
 43 45  1  1
 43 46  1  0
 44 43  1  0
 47 49  1  1
 47 50  1  0
 48 47  1  0
M  END
$$$$
