out_1003764
     RDKit          3D

 59 63  0  0  1  0  0  0  0  0999 V2000
    2.8385    8.0948    7.8026 S   0  0  1  0  0  0  0  0  0  0  0  0
    6.7182    7.0325   10.0510 O   0  0  0  0  0  0  0  0  0  0  0  0
    2.9148    9.1765    6.8686 O   0  0  0  0  0  0  0  0  0  0  0  0
    2.2302    6.8647    7.4113 O   0  0  0  0  0  0  0  0  0  0  0  0
    4.3753    7.7013    8.2620 N   0  0  0  0  0  0  0  0  0  0  0  0
    5.7639    6.0964    9.5489 C   0  0  2  0  0  0  0  0  0  0  0  0
    5.6908    5.3336   10.1762 H   0  0  0  0  0  0  0  0  0  0  0  0
    6.0759    5.7454    8.6770 H   0  0  0  0  0  0  0  0  0  0  0  0
    4.4067    6.7317    9.3746 C   0  0  2  0  0  0  0  0  0  0  0  0
    3.7361    6.0237    9.2062 H   0  0  0  0  0  0  0  0  0  0  0  0
    4.1556    7.1938   10.2140 H   0  0  0  0  0  0  0  0  0  0  0  0
    5.3774    8.8085    8.3552 C   0  0  2  0  0  0  0  0  0  0  0  0
    5.3979    9.1544    9.2821 H   0  0  0  0  0  0  0  0  0  0  0  0
    5.1030    9.5490    7.7585 H   0  0  0  0  0  0  0  0  0  0  0  0
    6.7622    8.3423    7.9660 C   0  0  0  0  0  0  0  0  0  0  0  0
    7.5498    7.5786    9.0300 C   0  0  1  0  0  0  0  0  0  0  0  0
    8.0234    6.8220    8.5799 H   0  0  0  0  0  0  0  0  0  0  0  0
    8.5939    8.4337    9.7303 C   0  0  2  0  0  0  0  0  0  0  0  0
    9.1652    7.8547   10.2949 H   0  0  0  0  0  0  0  0  0  0  0  0
    8.1398    9.0843   10.3227 H   0  0  0  0  0  0  0  0  0  0  0  0
    9.4734    9.1904    8.7252 C   0  0  1  0  0  0  0  0  0  0  0  0
    9.0132   10.0231    8.4527 H   0  0  0  0  0  0  0  0  0  0  0  0
   10.3245    9.4430    9.1638 H   0  0  0  0  0  0  0  0  0  0  0  0
    9.7752    8.3654    7.4957 C   0  0  0  0  0  0  0  0  0  0  0  0
   11.0333    7.8285    7.2768 C   0  0  0  0  0  0  0  0  0  0  0  0
   11.7232    7.9980    7.9075 H   0  0  0  0  0  0  0  0  0  0  0  0
   11.3138    7.0487    6.1627 C   0  0  0  0  0  0  0  0  0  0  0  0
   12.1702    6.6521    6.0584 H   0  0  0  0  0  0  0  0  0  0  0  0
   10.3257    6.8555    5.2006 C   0  0  0  0  0  0  0  0  0  0  0  0
   10.5139    6.3466    4.4203 H   0  0  0  0  0  0  0  0  0  0  0  0
    9.0667    7.4085    5.3844 C   0  0  0  0  0  0  0  0  0  0  0  0
    8.4033    7.2966    4.7138 H   0  0  0  0  0  0  0  0  0  0  0  0
    8.7594    8.1282    6.5455 C   0  0  0  0  0  0  0  0  0  0  0  0
    7.3574    8.5829    6.7826 C   0  0  0  0  0  0  0  0  0  0  0  0
    6.7249    9.2957    5.6351 C   0  0  0  0  0  0  0  0  0  0  0  0
    5.4335    9.0018    5.1982 C   0  0  0  0  0  0  0  0  0  0  0  0
    4.9474    8.2976    5.6102 H   0  0  0  0  0  0  0  0  0  0  0  0
    4.8493    9.7330    4.1629 C   0  0  0  0  0  0  0  0  0  0  0  0
    3.9603    9.5360    3.8900 H   0  0  0  0  0  0  0  0  0  0  0  0
    5.5530   10.7385    3.5326 C   0  0  0  0  0  0  0  0  0  0  0  0
    5.1492   11.2376    2.8325 H   0  0  0  0  0  0  0  0  0  0  0  0
    6.8621   11.0173    3.9305 C   0  0  0  0  0  0  0  0  0  0  0  0
    7.3564   11.6992    3.4906 H   0  0  0  0  0  0  0  0  0  0  0  0
    7.4437   10.2988    4.9682 C   0  0  0  0  0  0  0  0  0  0  0  0
    8.3375   10.4897    5.2282 H   0  0  0  0  0  0  0  0  0  0  0  0
    1.9450    8.6778    9.2162 C   0  0  0  0  0  0  0  0  0  0  0  0
    1.3184    7.7603   10.0574 C   0  0  0  0  0  0  0  0  0  0  0  0
    1.4356    6.8270    9.9265 H   0  0  0  0  0  0  0  0  0  0  0  0
    0.5196    8.2312   11.0895 C   0  0  0  0  0  0  0  0  0  0  0  0
    0.0942    7.6103   11.6696 H   0  0  0  0  0  0  0  0  0  0  0  0
    0.3310    9.5838   11.2877 C   0  0  0  0  0  0  0  0  0  0  0  0
    1.0146   10.4886   10.4648 C   0  0  0  0  0  0  0  0  0  0  0  0
    0.9234   11.4217   10.6184 H   0  0  0  0  0  0  0  0  0  0  0  0
    1.8181   10.0443    9.4351 C   0  0  0  0  0  0  0  0  0  0  0  0
    2.2796   10.6654    8.8833 H   0  0  0  0  0  0  0  0  0  0  0  0
   -0.6091   10.0709   12.3660 C   0  0  2  0  0  0  0  0  0  0  0  0
   -0.2605    9.8120   13.2449 H   0  0  0  0  0  0  0  0  0  0  0  0
   -1.4936    9.6699   12.2347 H   0  0  0  0  0  0  0  0  0  0  0  0
   -0.6826   11.0470   12.3186 H   0  0  0  0  0  0  0  0  0  0  0  0
  1  5  1  1
  1 46  1  0
  3  1  2  0
  4  1  2  0
  5 12  1  0
  5  9  1  0
  6  2  1  0
  6  7  1  1
  8  6  1  0
  9  6  1  0
  9 11  1  1
 10  9  1  0
 12 13  1  1
 14 12  1  0
 15 12  1  0
 15 16  1  0
 16 17  1  6
 16 18  1  0
 16  2  1  0
 18 19  1  1
 18 20  1  0
 21 23  1  1
 21 18  1  0
 22 21  1  0
 24 21  1  0
 25 24  2  0
 25 26  1  0
 27 25  1  0
 28 27  1  0
 29 31  1  0
 29 27  2  0
 30 29  1  0
 31 33  2  0
 32 31  1  0
 33 34  1  0
 33 24  1  0
 34 15  2  0
 35 34  1  0
 36 37  1  0
 36 35  2  0
 38 36  1  0
 39 38  1  0
 40 42  1  0
 40 38  2  0
 41 40  1  0
 42 44  2  0
 43 42  1  0
 44 45  1  0
 44 35  1  0
 46 54  1  0
 46 47  2  0
 47 49  1  0
 48 47  1  0
 49 51  2  0
 49 50  1  0
 51 56  1  0
 52 53  1  0
 52 51  1  0
 54 52  2  0
 55 54  1  0
 56 57  1  1
 58 56  1  0
 59 56  1  0
M  END
$$$$
