out_1002083
     RDKit          3D

 35 37  0  0  1  0  0  0  0  0999 V2000
    5.1065    2.6416   14.9663 S   0  0  2  0  0  0  0  0  0  0  0  0
    4.7159    4.0226   15.1252 O   0  0  0  0  0  0  0  0  0  0  0  0
    3.2093    3.0546   12.6979 O   0  0  0  0  0  0  0  0  0  0  0  0
    6.2575    2.1829   15.7170 O   0  0  0  0  0  0  0  0  0  0  0  0
    4.3016    2.7004   12.3049 C   0  0  0  0  0  0  0  0  0  0  0  0
    5.4699    2.3304   13.2177 C   0  0  2  0  0  0  0  0  0  0  0  0
    3.7376    1.5760   15.3931 C   0  0  1  0  0  0  0  0  0  0  0  0
    2.9330    1.8406   14.8808 H   0  0  0  0  0  0  0  0  0  0  0  0
    3.9574    0.6382   15.1639 H   0  0  0  0  0  0  0  0  0  0  0  0
    7.0545    2.9817   11.3730 C   0  0  2  0  0  0  0  0  0  0  0  0
    7.8482    3.5422   11.1361 H   0  0  0  0  0  0  0  0  0  0  0  0
    7.3953    1.5018   11.1516 C   0  0  1  0  0  0  0  0  0  0  0  0
    7.6514    1.3548   10.2065 H   0  0  0  0  0  0  0  0  0  0  0  0
    8.1619    1.2454   11.7234 H   0  0  0  0  0  0  0  0  0  0  0  0
    5.8120    0.8378   12.9781 C   0  0  1  0  0  0  0  0  0  0  0  0
    6.5729    0.5705   13.5527 H   0  0  0  0  0  0  0  0  0  0  0  0
    5.0336    0.2722   13.2103 H   0  0  0  0  0  0  0  0  0  0  0  0
    3.4676    1.6914   16.8609 C   0  0  0  0  0  0  0  0  0  0  0  0
    4.1713    1.4931   17.4675 H   0  0  0  0  0  0  0  0  0  0  0  0
    6.1800    0.6398   11.4983 C   0  0  1  0  0  0  0  0  0  0  0  0
    6.4050   -0.3219   11.3427 H   0  0  0  0  0  0  0  0  0  0  0  0
    6.6893    3.2171   12.8445 C   0  0  1  0  0  0  0  0  0  0  0  0
    6.4664    4.1712   12.9866 H   0  0  0  0  0  0  0  0  0  0  0  0
    7.4596    2.9889   13.4225 H   0  0  0  0  0  0  0  0  0  0  0  0
    4.6442    2.5159   10.8424 C   0  0  1  0  0  0  0  0  0  0  0  0
    3.8650    2.7783   10.2732 H   0  0  0  0  0  0  0  0  0  0  0  0
    5.8739    3.3748   10.4811 C   0  0  2  0  0  0  0  0  0  0  0  0
    6.1115    3.2353    9.5302 H   0  0  0  0  0  0  0  0  0  0  0  0
    5.6617    4.3333   10.6097 H   0  0  0  0  0  0  0  0  0  0  0  0
    2.3022    2.0539   17.3505 C   0  0  0  0  0  0  0  0  0  0  0  0
    1.5833    2.2572   16.7640 H   0  0  0  0  0  0  0  0  0  0  0  0
    2.1798    2.1126   18.2907 H   0  0  0  0  0  0  0  0  0  0  0  0
    4.9801    1.0235   10.6217 C   0  0  2  0  0  0  0  0  0  0  0  0
    4.1984    0.4646   10.8593 H   0  0  0  0  0  0  0  0  0  0  0  0
    5.1967    0.8653    9.6688 H   0  0  0  0  0  0  0  0  0  0  0  0
  1  2  2  0
  1  7  1  0
  1  4  2  0
  5  3  2  0
  6  5  1  6
  1  6  1  6
  7 18  1  0
  7  8  1  6
  9  7  1  0
 10 11  1  6
 10 22  1  0
 12 10  1  0
 12 20  1  0
 12 14  1  1
 13 12  1  0
 15 17  1  1
 15  6  1  0
 15 16  1  0
 18 30  2  0
 18 19  1  0
 20 21  1  1
 20 15  1  0
 22 23  1  6
 22  6  1  0
 22 24  1  0
 25 26  1  6
 25  5  1  0
 27 29  1  6
 27 25  1  0
 27 10  1  0
 28 27  1  0
 30 32  1  0
 31 30  1  0
 33 25  1  0
 33 34  1  1
 33 20  1  0
 35 33  1  0
M  END
$$$$
