out_1978481
     RDKit          3D

 52 55  0  0  0  0  0  0  0  0999 V2000
    6.4486    3.8836    1.6745 C   0  0  0  0  0  0  0  0  0  0  0  0
    5.5029    4.7046    2.4163 C   0  0  0  0  0  0  0  0  0  0  0  0
    6.0553    6.6552    1.0571 C   0  0  0  0  0  0  0  0  0  0  0  0
    5.9671    7.9882    0.6886 C   0  0  0  0  0  0  0  0  0  0  0  0
    5.3502    8.5465    1.1049 H   0  0  0  0  0  0  0  0  0  0  0  0
    6.7985    8.4891   -0.2988 C   0  0  0  0  0  0  0  0  0  0  0  0
    6.7333    9.3844   -0.5412 H   0  0  0  0  0  0  0  0  0  0  0  0
    7.7171    7.6840   -0.9265 C   0  0  0  0  0  0  0  0  0  0  0  0
    8.2643    8.0308   -1.5935 H   0  0  0  0  0  0  0  0  0  0  0  0
    7.8215    6.3713   -0.5664 C   0  0  0  0  0  0  0  0  0  0  0  0
    8.4444    5.8220   -0.9846 H   0  0  0  0  0  0  0  0  0  0  0  0
    7.0023    5.8613    0.4192 C   0  0  0  0  0  0  0  0  0  0  0  0
    4.6488    4.3783    3.4458 C   0  0  0  0  0  0  0  0  0  0  0  0
    3.8830    5.5289    3.7304 C   0  0  0  0  0  0  0  0  0  0  0  0
    4.2640    6.5331    2.8659 C   0  0  0  0  0  0  0  0  0  0  0  0
    3.6663    7.8866    2.7434 C   0  0  0  0  0  0  0  0  0  0  0  0
    2.6693    8.1137    1.8017 C   0  0  0  0  0  0  0  0  0  0  0  0
    2.3813    7.4197    1.2540 H   0  0  0  0  0  0  0  0  0  0  0  0
    2.1066    9.3717    1.6797 C   0  0  0  0  0  0  0  0  0  0  0  0
    1.4435    9.5212    1.0448 H   0  0  0  0  0  0  0  0  0  0  0  0
    2.5218   10.4061    2.4936 C   0  0  0  0  0  0  0  0  0  0  0  0
    2.1402   11.2500    2.4090 H   0  0  0  0  0  0  0  0  0  0  0  0
    3.4993   10.1808    3.4276 C   0  0  0  0  0  0  0  0  0  0  0  0
    3.7865   10.8787    3.9712 H   0  0  0  0  0  0  0  0  0  0  0  0
    4.0647    8.9249    3.5710 C   0  0  0  0  0  0  0  0  0  0  0  0
    4.7119    8.7781    4.2230 H   0  0  0  0  0  0  0  0  0  0  0  0
    2.8533    5.6942    4.8106 C   0  0  1  0  0  0  0  0  0  0  0  0
    1.6038    4.8666    4.5172 C   0  0  0  0  0  0  0  0  0  0  0  0
   -0.0753    3.4899    5.3727 C   0  0  2  0  0  0  0  0  0  0  0  0
   -0.8035    4.0926    5.2026 H   0  0  0  0  0  0  0  0  0  0  0  0
   -0.2707    2.9655    6.1522 H   0  0  0  0  0  0  0  0  0  0  0  0
    0.0423    2.9095    4.6176 H   0  0  0  0  0  0  0  0  0  0  0  0
    3.4374    5.4325    6.1940 C   0  0  0  0  0  0  0  0  0  0  0  0
    3.1575    5.8086    8.4974 C   0  0  2  0  0  0  0  0  0  0  0  0
    3.1857    4.8620    8.6576 H   0  0  0  0  0  0  0  0  0  0  0  0
    2.5351    6.2171    9.1036 H   0  0  0  0  0  0  0  0  0  0  0  0
    4.0308    6.1829    8.6338 H   0  0  0  0  0  0  0  0  0  0  0  0
    4.4127    3.0459    4.0626 C   0  0  0  0  0  0  0  0  0  0  0  0
    5.3949    1.0121    4.7240 C   0  0  2  0  0  0  0  0  0  0  0  0
    5.1772    0.9654    5.6573 H   0  0  0  0  0  0  0  0  0  0  0  0
    6.2220    0.5519    4.5649 H   0  0  0  0  0  0  0  0  0  0  0  0
    4.6954    0.5997    4.2117 H   0  0  0  0  0  0  0  0  0  0  0  0
    5.2644    6.0292    2.0544 N   0  0  0  0  0  0  0  0  0  0  0  0
    7.1663    4.5245    0.7080 O   0  0  0  0  0  0  0  0  0  0  0  0
    6.6396    2.7169    1.8192 O   0  0  0  0  0  0  0  0  0  0  0  0
    1.0880    4.8435    3.4359 O   0  0  0  0  0  0  0  0  0  0  0  0
    1.1385    4.2497    5.5927 O   0  0  0  0  0  0  0  0  0  0  0  0
    4.4031    4.7669    6.4122 O   0  0  0  0  0  0  0  0  0  0  0  0
    2.7355    6.0526    7.1382 O   0  0  0  0  0  0  0  0  0  0  0  0
    3.3124    2.6298    4.2845 O   0  0  0  0  0  0  0  0  0  0  0  0
    5.5283    2.3899    4.3299 O   0  0  0  0  0  0  0  0  0  0  0  0
    2.5399    6.6141    4.8193 H   0  0  0  0  0  0  0  0  0  0  0  0
  1 45  2  0
  1  2  1  0
  2 13  2  0
  3 43  1  0
  4  3  2  0
  4  5  1  0
  6  4  1  0
  7  6  1  0
  8 10  1  0
  8  6  2  0
  9  8  1  0
 10 12  2  0
 11 10  1  0
 12 44  1  0
 12  3  1  0
 13 14  1  0
 13 38  1  0
 14 27  1  0
 15 14  2  0
 16 15  1  0
 16 25  1  0
 17 16  2  0
 18 17  1  0
 19 17  1  0
 19 21  2  0
 20 19  1  0
 21 23  1  0
 22 21  1  0
 23 25  2  0
 23 24  1  0
 25 26  1  0
 27 52  1  1
 27 33  1  0
 28 27  1  0
 28 47  1  0
 29 47  1  0
 29 31  1  1
 30 29  1  0
 32 29  1  0
 33 48  2  0
 33 49  1  0
 34 37  1  6
 34 35  1  0
 34 36  1  0
 38 50  2  0
 38 51  1  0
 39 40  1  1
 41 39  1  0
 42 39  1  0
 43  2  1  0
 43 15  1  0
 44  1  1  0
 46 28  2  0
 49 34  1  0
 51 39  1  0
M  END
$$$$
