out_1784733
     RDKit          3D

 59 61  0  0  0  0  0  0  0  0999 V2000
   -1.2800    0.1715    8.0947 P   0  0  1  0  0  0  0  0  0  0  0  0
   -0.3534   -0.7418    7.2309 O   0  0  0  0  0  0  0  0  0  0  0  0
   -2.1331    1.0780    7.3060 O   0  0  0  0  0  0  0  0  0  0  0  0
   -2.0615   -0.7700    9.0169 O   0  0  0  0  0  0  0  0  0  0  0  0
   -0.3012    0.9296    9.0603 O   0  0  0  0  0  0  0  0  0  0  0  0
    1.8966    0.6817   10.0230 C   0  0  0  0  0  0  0  0  0  0  0  0
    1.3214   -0.2995    3.4463 C   0  0  0  0  0  0  0  0  0  0  0  0
    0.7968    1.8423    6.5216 C   0  0  1  0  0  0  0  0  0  0  0  0
    1.1760    2.5992    6.0484 H   0  0  0  0  0  0  0  0  0  0  0  0
   -0.1042    2.0827    6.7905 H   0  0  0  0  0  0  0  0  0  0  0  0
    1.1092    1.0507    8.9319 C   0  0  0  0  0  0  0  0  0  0  0  0
    0.0818   -1.6545    5.0657 C   0  0  0  0  0  0  0  0  0  0  0  0
    0.7335    0.6535    5.5862 C   0  0  0  0  0  0  0  0  0  0  0  0
    2.9963    1.7926    7.6977 C   0  0  0  0  0  0  0  0  0  0  0  0
    3.3596    2.1588    6.9241 H   0  0  0  0  0  0  0  0  0  0  0  0
    1.6249    1.5644    7.7558 C   0  0  0  0  0  0  0  0  0  0  0  0
    0.7724   -1.3794   10.8956 C   0  0  2  0  0  0  0  0  0  0  0  0
    0.0820   -1.2601   10.2384 H   0  0  0  0  0  0  0  0  0  0  0  0
    0.4047   -1.8057   11.6723 H   0  0  0  0  0  0  0  0  0  0  0  0
    1.4700   -1.9278   10.5293 H   0  0  0  0  0  0  0  0  0  0  0  0
    1.3107    0.7503    4.3221 C   0  0  0  0  0  0  0  0  0  0  0  0
    1.7024    1.5540    4.0658 H   0  0  0  0  0  0  0  0  0  0  0  0
    1.3476   -0.0131   11.2855 C   0  0  2  0  0  0  0  0  0  0  0  0
    3.8323    1.4902    8.7495 C   0  0  0  0  0  0  0  0  0  0  0  0
    0.2729    0.8536   11.9459 C   0  0  2  0  0  0  0  0  0  0  0  0
    0.6364    1.7193   12.1455 H   0  0  0  0  0  0  0  0  0  0  0  0
   -0.0215    0.4348   12.7587 H   0  0  0  0  0  0  0  0  0  0  0  0
   -0.4716    0.9503   11.3484 H   0  0  0  0  0  0  0  0  0  0  0  0
   -0.5895   -2.9804    5.4494 C   0  0  2  0  0  0  0  0  0  0  0  0
    3.2725    0.9127    9.8815 C   0  0  0  0  0  0  0  0  0  0  0  0
    3.8357    0.6686   10.5796 H   0  0  0  0  0  0  0  0  0  0  0  0
    0.1398   -0.5456    5.9195 C   0  0  0  0  0  0  0  0  0  0  0  0
    0.1708   -3.6452    6.6160 C   0  0  2  0  0  0  0  0  0  0  0  0
    1.0503   -3.8968    6.3220 H   0  0  0  0  0  0  0  0  0  0  0  0
   -0.3066   -4.4264    6.9053 H   0  0  0  0  0  0  0  0  0  0  0  0
    0.2428   -3.0255    7.3455 H   0  0  0  0  0  0  0  0  0  0  0  0
    2.4411   -0.2573   12.3389 C   0  0  2  0  0  0  0  0  0  0  0  0
    3.0996   -0.8564   11.9820 H   0  0  0  0  0  0  0  0  0  0  0  0
    2.0471   -0.6451   13.1235 H   0  0  0  0  0  0  0  0  0  0  0  0
    2.8568    0.5775   12.5669 H   0  0  0  0  0  0  0  0  0  0  0  0
    0.6951   -1.4855    3.8284 C   0  0  0  0  0  0  0  0  0  0  0  0
    0.6879   -2.1963    3.2278 H   0  0  0  0  0  0  0  0  0  0  0  0
   -0.6007   -3.9851    4.2843 C   0  0  2  0  0  0  0  0  0  0  0  0
    0.3032   -4.1692    4.0124 H   0  0  0  0  0  0  0  0  0  0  0  0
   -1.0872   -3.6123    3.5454 H   0  0  0  0  0  0  0  0  0  0  0  0
   -1.0220   -4.7992    4.5674 H   0  0  0  0  0  0  0  0  0  0  0  0
    5.3147    1.7822    8.6960 C   0  0  2  0  0  0  0  0  0  0  0  0
    5.4647    2.5823    8.1866 H   0  0  0  0  0  0  0  0  0  0  0  0
    5.7708    1.0470    8.2794 H   0  0  0  0  0  0  0  0  0  0  0  0
    5.6501    1.9024    9.5875 H   0  0  0  0  0  0  0  0  0  0  0  0
    1.9902   -0.1747    2.0989 C   0  0  2  0  0  0  0  0  0  0  0  0
    1.9314    0.7343    1.7955 H   0  0  0  0  0  0  0  0  0  0  0  0
    1.5512   -0.7512    1.4685 H   0  0  0  0  0  0  0  0  0  0  0  0
    2.9129   -0.4272    2.1744 H   0  0  0  0  0  0  0  0  0  0  0  0
   -2.0657   -2.7456    5.8550 C   0  0  2  0  0  0  0  0  0  0  0  0
   -2.4971   -3.5917    5.9949 H   0  0  0  0  0  0  0  0  0  0  0  0
   -2.5175   -2.2667    5.1569 H   0  0  0  0  0  0  0  0  0  0  0  0
   -2.0967   -2.2329    6.6663 H   0  0  0  0  0  0  0  0  0  0  0  0
   -3.1946   -1.0141    8.7259 H   0  0  0  0  0  0  0  0  0  0  0  0
  1  4  1  1
  1  5  1  0
  2  1  1  0
  3  1  2  0
 23  6  1  6
  7 41  2  0
  7 21  1  0
  8 10  1  1
  8 16  1  0
  9  8  1  0
 11  5  1  0
 11  6  2  0
 29 12  1  6
 12 32  2  0
 13 32  1  0
 13  8  1  0
 14 16  2  0
 14 24  1  0
 15 14  1  0
 16 11  1  0
 17 23  1  0
 17 19  1  1
 18 17  1  0
 20 17  1  0
 21 13  2  0
 22 21  1  0
 23 25  1  0
 23 37  1  0
 24 30  2  0
 25 26  1  1
 25 27  1  0
 28 25  1  0
 29 55  1  0
 29 33  1  0
 30  6  1  0
 30 31  1  0
 32  2  1  0
 33 35  1  1
 33 36  1  0
 34 33  1  0
 37 40  1  1
 37 39  1  0
 38 37  1  0
 41 12  1  0
 42 41  1  0
 43 46  1  1
 43 29  1  0
 44 43  1  0
 45 43  1  0
 47 24  1  0
 47 50  1  1
 48 47  1  0
 49 47  1  0
 51 54  1  1
 51  7  1  0
 52 51  1  0
 53 51  1  0
 55 56  1  1
 55 58  1  0
 57 55  1  0
 59  4  1  0
M  END
$$$$
