out_1784847
     RDKit          3D

 36 37  0  0  1  0  0  0  0  0999 V2000
    0.7240    6.5799    3.2174 O   0  0  0  0  0  0  0  0  0  0  0  0
   -0.3588    8.6051    4.9029 O   0  0  0  0  0  0  0  0  0  0  0  0
    0.2546    8.1321    5.1718 H   0  0  0  0  0  0  0  0  0  0  0  0
    3.5818    7.9674    0.2328 O   0  0  0  0  0  0  0  0  0  0  0  0
    4.1200    8.5080   -0.0686 H   0  0  0  0  0  0  0  0  0  0  0  0
    2.4788    9.8353    0.7247 O   0  0  0  0  0  0  0  0  0  0  0  0
   -0.3463    7.4454    2.7468 C   0  0  2  0  0  0  0  0  0  0  0  0
   -1.2117    6.6717    1.7516 C   0  0  2  0  0  0  0  0  0  0  0  0
   -0.3398    6.0331    0.6720 C   0  0  1  0  0  0  0  0  0  0  0  0
    0.8058    6.9269    0.1748 C   0  0  2  0  0  0  0  0  0  0  0  0
    1.4714    7.7436    1.3176 C   0  0  1  0  0  0  0  0  0  0  0  0
    0.3733    8.5615    2.0009 C   0  0  1  0  0  0  0  0  0  0  0  0
    1.9642    6.8616    2.5110 C   0  0  2  0  0  0  0  0  0  0  0  0
    2.6112    5.5398    2.1260 C   0  0  2  0  0  0  0  0  0  0  0  0
    2.8971    7.6471    3.4496 C   0  0  2  0  0  0  0  0  0  0  0  0
    3.2512    6.9385    4.7447 C   0  0  1  0  0  0  0  0  0  0  0  0
    2.5730    8.5975    0.7323 C   0  0  0  0  0  0  0  0  0  0  0  0
   -1.1335    7.8833    3.9604 C   0  0  1  0  0  0  0  0  0  0  0  0
   -1.8658    7.3454    1.4239 H   0  0  0  0  0  0  0  0  0  0  0  0
   -1.7344    6.0007    2.2608 H   0  0  0  0  0  0  0  0  0  0  0  0
    0.0254    5.1540    1.0479 H   0  0  0  0  0  0  0  0  0  0  0  0
   -0.8683    5.8089   -0.0979 H   0  0  0  0  0  0  0  0  0  0  0  0
    0.4368    7.6341   -0.4882 H   0  0  0  0  0  0  0  0  0  0  0  0
    1.4860    6.3631   -0.3548 H   0  0  0  0  0  0  0  0  0  0  0  0
   -0.2561    8.9866    1.2430 H   0  0  0  0  0  0  0  0  0  0  0  0
    0.7771    9.2404    2.5720 H   0  0  0  0  0  0  0  0  0  0  0  0
    2.0872    4.9971    1.5128 H   0  0  0  0  0  0  0  0  0  0  0  0
    2.7264    4.9331    2.8982 H   0  0  0  0  0  0  0  0  0  0  0  0
    3.4412    5.6229    1.8171 H   0  0  0  0  0  0  0  0  0  0  0  0
    2.4732    8.4983    3.6297 H   0  0  0  0  0  0  0  0  0  0  0  0
    3.6429    7.8957    2.9381 H   0  0  0  0  0  0  0  0  0  0  0  0
    3.7692    7.5024    5.3421 H   0  0  0  0  0  0  0  0  0  0  0  0
    2.5115    6.6692    5.2065 H   0  0  0  0  0  0  0  0  0  0  0  0
    3.6808    6.1306    4.5285 H   0  0  0  0  0  0  0  0  0  0  0  0
   -1.5679    7.0800    4.3582 H   0  0  0  0  0  0  0  0  0  0  0  0
   -1.9066    8.5642    3.7435 H   0  0  0  0  0  0  0  0  0  0  0  0
  2  3  1  0
  4 17  1  0
  5  4  1  0
  6 17  2  0
  7  1  1  1
  7 18  1  0
  8 20  1  1
  8  7  1  0
  9 21  1  1
  9  8  1  0
 10  9  1  0
 10 11  1  0
 11 17  1  6
 11 12  1  0
 11 13  1  0
 12 26  1  1
 12  7  1  0
 13 14  1  0
 13  1  1  1
 13 15  1  0
 14 28  1  1
 15 30  1  1
 15 16  1  0
 16 33  1  1
 16 32  1  0
 18 35  1  1
 18  2  1  0
 19  8  1  0
 22  9  1  0
 10 23  1  6
 24 10  1  0
 25 12  1  0
 27 14  1  0
 29 14  1  0
 31 15  1  0
 34 16  1  0
 36 18  1  0
M  END
$$$$
