out_1807847
     RDKit          3D

 31 34  0  0  0  0  0  0  0  0999 V2000
    9.3110    1.1772    2.7412 N   0  0  0  0  0  0  0  0  0  0  0  0
    9.2196   -0.3960    5.2508 N   0  0  0  0  0  0  0  0  0  0  0  0
    9.2657    1.5814    1.4435 C   0  0  0  0  0  0  0  0  0  0  0  0
    8.5284    2.0989    1.1446 H   0  0  0  0  0  0  0  0  0  0  0  0
   10.2600    1.2584    0.5559 C   0  0  0  0  0  0  0  0  0  0  0  0
   10.1505    1.4098   -0.3755 H   0  0  0  0  0  0  0  0  0  0  0  0
   11.4098    0.7104    1.0498 C   0  0  0  0  0  0  0  0  0  0  0  0
   12.1681    0.6241    0.4830 H   0  0  0  0  0  0  0  0  0  0  0  0
   11.4864    0.2781    2.3675 C   0  0  0  0  0  0  0  0  0  0  0  0
   12.6784   -0.2814    2.9143 C   0  0  0  0  0  0  0  0  0  0  0  0
   13.4252   -0.4321    2.3475 H   0  0  0  0  0  0  0  0  0  0  0  0
   12.7647   -0.5942    4.2029 C   0  0  0  0  0  0  0  0  0  0  0  0
   13.6087   -0.8288    4.5728 H   0  0  0  0  0  0  0  0  0  0  0  0
   11.5892   -0.5815    5.0504 C   0  0  0  0  0  0  0  0  0  0  0  0
   11.6561   -1.0143    6.3735 C   0  0  0  0  0  0  0  0  0  0  0  0
   12.4923   -1.2628    6.7508 H   0  0  0  0  0  0  0  0  0  0  0  0
   10.5098   -1.0860    7.1372 C   0  0  0  0  0  0  0  0  0  0  0  0
   10.5536   -1.3041    8.0612 H   0  0  0  0  0  0  0  0  0  0  0  0
    9.2839   -0.8265    6.5175 C   0  0  0  0  0  0  0  0  0  0  0  0
    8.4793   -0.9574    7.0060 H   0  0  0  0  0  0  0  0  0  0  0  0
   10.3622   -0.1660    4.5018 C   0  0  0  0  0  0  0  0  0  0  0  0
   10.3536    0.3925    3.1986 C   0  0  0  0  0  0  0  0  0  0  0  0
    8.3825    1.8016    3.7363 C   0  0  2  0  0  0  0  0  0  0  0  0
    7.9635    2.6005    3.3298 H   0  0  0  0  0  0  0  0  0  0  0  0
    8.9056    2.0997    4.5218 H   0  0  0  0  0  0  0  0  0  0  0  0
    7.2920    0.8565    4.2010 C   0  0  1  0  0  0  0  0  0  0  0  0
    6.8344    1.2371    4.9902 H   0  0  0  0  0  0  0  0  0  0  0  0
    6.6231    0.7382    3.4811 H   0  0  0  0  0  0  0  0  0  0  0  0
    7.8954   -0.4733    4.5564 C   0  0  2  0  0  0  0  0  0  0  0  0
    7.2613   -0.9588    5.1397 H   0  0  0  0  0  0  0  0  0  0  0  0
    8.0038   -1.0014    3.7272 H   0  0  0  0  0  0  0  0  0  0  0  0
  1 22  1  0
  1 23  1  0
  2 19  1  0
  3  1  1  0
  4  3  1  0
  5  7  1  0
  5  3  2  0
  6  5  1  0
  7  9  2  0
  8  7  1  0
  9 10  1  0
  9 22  1  0
 10 12  2  0
 11 10  1  0
 12 13  1  0
 12 14  1  0
 14 15  2  0
 15 16  1  0
 15 17  1  0
 17 18  1  0
 19 20  1  0
 19 17  2  0
 21 14  1  0
 21  2  1  0
 22 21  2  0
 23 26  1  0
 23 25  1  1
 24 23  1  0
 26 29  1  0
 26 27  1  1
 28 26  1  0
 29 30  1  1
 29  2  1  0
 31 29  1  0
M  END
$$$$
