out_1011291
     RDKit          3D

 55 57  0  0  1  0  0  0  0  0999 V2000
    6.7749    1.1126   23.8663 Br  0  0  0  0  0  0  0  0  0  0  0  0
    7.1757    4.2002   17.7896 O   0  0  0  0  0  0  0  0  0  0  0  0
    5.2350    5.0505   18.5474 O   0  0  0  0  0  0  0  0  0  0  0  0
    4.1602    8.1306   16.9066 O   0  0  0  0  0  0  0  0  0  0  0  0
    5.9605    8.0125   13.7094 O   0  0  0  0  0  0  0  0  0  0  0  0
    6.5576    2.0126   22.2093 C   0  0  0  0  0  0  0  0  0  0  0  0
    7.5351    1.8984   21.2669 C   0  0  0  0  0  0  0  0  0  0  0  0
    8.2941    1.3491   21.4229 H   0  0  0  0  0  0  0  0  0  0  0  0
    7.4025    2.5944   20.0783 C   0  0  0  0  0  0  0  0  0  0  0  0
    8.0701    2.5097   19.4075 H   0  0  0  0  0  0  0  0  0  0  0  0
    6.3059    3.4162   19.8557 C   0  0  0  0  0  0  0  0  0  0  0  0
    5.3139    3.4877   20.8124 C   0  0  0  0  0  0  0  0  0  0  0  0
    4.5442    4.0229   20.6585 H   0  0  0  0  0  0  0  0  0  0  0  0
    5.4390    2.7760   22.0029 C   0  0  0  0  0  0  0  0  0  0  0  0
    4.7571    2.8195   22.6630 H   0  0  0  0  0  0  0  0  0  0  0  0
    6.3004    4.2372   18.6142 C   0  0  0  0  0  0  0  0  0  0  0  0
    3.5612    7.7389   14.1857 C   0  0  2  0  0  0  0  0  0  0  0  0
    3.3009    8.6837   14.1733 H   0  0  0  0  0  0  0  0  0  0  0  0
    2.9560    7.2411   14.7741 H   0  0  0  0  0  0  0  0  0  0  0  0
    3.5085    7.3736   13.2780 H   0  0  0  0  0  0  0  0  0  0  0  0
    5.2519    6.0419   17.4677 C   0  0  1  0  0  0  0  0  0  0  0  0
    6.1988    6.3264   17.3179 H   0  0  0  0  0  0  0  0  0  0  0  0
    4.7172    5.4617   16.1678 C   0  0  2  0  0  0  0  0  0  0  0  0
    3.7340    5.5761   16.1418 H   0  0  0  0  0  0  0  0  0  0  0  0
    4.9110    4.4915   16.1416 H   0  0  0  0  0  0  0  0  0  0  0  0
    5.3342    6.1314   14.9347 C   0  0  2  0  0  0  0  0  0  0  0  0
    5.0501    5.6224   14.1343 H   0  0  0  0  0  0  0  0  0  0  0  0
    6.3183    6.0504   15.0009 H   0  0  0  0  0  0  0  0  0  0  0  0
    4.9924    7.6123   14.7032 C   0  0  1  0  0  0  0  0  0  0  0  0
    5.2233    8.4177   15.9879 C   0  0  1  0  0  0  0  0  0  0  0  0
    6.0882    8.1273   16.3976 H   0  0  0  0  0  0  0  0  0  0  0  0
    4.4622    7.2532   18.0020 C   0  0  2  0  0  0  0  0  0  0  0  0
    3.1002    6.8538   18.5520 C   0  0  2  0  0  0  0  0  0  0  0  0
    2.5802    7.6598   18.7527 H   0  0  0  0  0  0  0  0  0  0  0  0
    3.2200    6.3298   19.3715 H   0  0  0  0  0  0  0  0  0  0  0  0
    2.6242    6.3150   17.8862 H   0  0  0  0  0  0  0  0  0  0  0  0
    5.2647    8.0076   19.0515 C   0  0  2  0  0  0  0  0  0  0  0  0
    6.0871    8.3550   18.6463 H   0  0  0  0  0  0  0  0  0  0  0  0
    5.4941    7.4008   19.7860 H   0  0  0  0  0  0  0  0  0  0  0  0
    4.7313    8.7529   19.3975 H   0  0  0  0  0  0  0  0  0  0  0  0
    5.2818    9.9060   15.7360 C   0  0  2  0  0  0  0  0  0  0  0  0
    5.4530   10.3873   16.5842 H   0  0  0  0  0  0  0  0  0  0  0  0
    4.4194   10.2217   15.3662 H   0  0  0  0  0  0  0  0  0  0  0  0
    6.4079   10.1772   14.7440 C   0  0  1  0  0  0  0  0  0  0  0  0
    6.4449   11.1473   14.5510 H   0  0  0  0  0  0  0  0  0  0  0  0
    7.2708    9.9141   15.1511 H   0  0  0  0  0  0  0  0  0  0  0  0
    6.2152    9.4137   13.4409 C   0  0  1  0  0  0  0  0  0  0  0  0
    7.5244    9.3726   12.6571 C   0  0  2  0  0  0  0  0  0  0  0  0
    8.2065    8.9066   13.1843 H   0  0  0  0  0  0  0  0  0  0  0  0
    7.8235   10.2873   12.4716 H   0  0  0  0  0  0  0  0  0  0  0  0
    7.3841    8.8973   11.8115 H   0  0  0  0  0  0  0  0  0  0  0  0
    5.1385   10.0383   12.5616 C   0  0  2  0  0  0  0  0  0  0  0  0
    4.9241    9.4283   11.8251 H   0  0  0  0  0  0  0  0  0  0  0  0
    5.4651   10.8875   12.1981 H   0  0  0  0  0  0  0  0  0  0  0  0
    4.3331   10.1999   13.0965 H   0  0  0  0  0  0  0  0  0  0  0  0
  2 16  2  0
  3 16  1  0
 32  4  1  6
 29  5  1  6
  6  1  1  0
  7  8  1  0
  7  6  2  0
  9  7  1  0
 10  9  1  0
 11  9  2  0
 11 12  1  0
 12 14  2  0
 13 12  1  0
 14  6  1  0
 14 15  1  0
 16 11  1  0
 17 19  1  1
 18 17  1  0
 20 17  1  0
 21 22  1  6
 21 32  1  0
 21  3  1  0
 23 21  1  0
 23 24  1  1
 25 23  1  0
 26 28  1  1
 26 23  1  0
 27 26  1  0
 29 17  1  0
 29 26  1  0
 29 30  1  0
 30 31  1  1
 30  4  1  0
 32 33  1  0
 32 37  1  0
 33 34  1  1
 33 35  1  0
 36 33  1  0
 37 40  1  1
 37 39  1  0
 38 37  1  0
 41 30  1  0
 41 42  1  1
 43 41  1  0
 44 46  1  1
 44 41  1  0
 45 44  1  0
 47  5  1  1
 47 44  1  0
 48 49  1  1
 48 47  1  0
 50 48  1  0
 51 48  1  0
 52 55  1  1
 52 47  1  0
 53 52  1  0
 54 52  1  0
M  END
$$$$
