out_1784807
     RDKit          3D

 59 61  0  0  0  0  0  0  0  0999 V2000
    0.2714   22.1467    6.0873 P   0  0  1  0  0  0  0  0  0  0  0  0
    0.7004   21.4508    4.7326 O   0  0  0  0  0  0  0  0  0  0  0  0
    0.3495   21.0279    7.2067 O   0  0  0  0  0  0  0  0  0  0  0  0
    1.1806   23.2570    6.4220 O   0  0  0  0  0  0  0  0  0  0  0  0
   -1.1812   22.3727    5.8894 O   0  0  0  0  0  0  0  0  0  0  0  0
   -1.9823   23.1046    6.2739 H   0  0  0  0  0  0  0  0  0  0  0  0
    2.0392   21.4054    4.2718 C   0  0  0  0  0  0  0  0  0  0  0  0
    2.4195   22.2061    3.1988 C   0  0  0  0  0  0  0  0  0  0  0  0
    3.7459   22.0799    2.8073 C   0  0  0  0  0  0  0  0  0  0  0  0
    4.0487   22.6159    2.1105 H   0  0  0  0  0  0  0  0  0  0  0  0
    4.6472   21.1991    3.3974 C   0  0  0  0  0  0  0  0  0  0  0  0
    4.1817   20.3986    4.4206 C   0  0  0  0  0  0  0  0  0  0  0  0
    4.7638   19.7938    4.8207 H   0  0  0  0  0  0  0  0  0  0  0  0
    2.8754   20.4720    4.8657 C   0  0  0  0  0  0  0  0  0  0  0  0
    2.3764   19.5159    5.9348 C   0  0  1  0  0  0  0  0  0  0  0  0
    1.4440   19.3188    5.7549 H   0  0  0  0  0  0  0  0  0  0  0  0
    2.8689   18.6856    5.8518 H   0  0  0  0  0  0  0  0  0  0  0  0
    2.4887   19.9872    7.3610 C   0  0  0  0  0  0  0  0  0  0  0  0
    3.5872   19.6284    8.1224 C   0  0  0  0  0  0  0  0  0  0  0  0
    4.2627   19.1238    7.7293 H   0  0  0  0  0  0  0  0  0  0  0  0
    3.7113   19.9939    9.4404 C   0  0  0  0  0  0  0  0  0  0  0  0
    2.6753   20.7037   10.0094 C   0  0  0  0  0  0  0  0  0  0  0  0
    2.7511   20.9456   10.9032 H   0  0  0  0  0  0  0  0  0  0  0  0
    1.5218   21.0807    9.3260 C   0  0  0  0  0  0  0  0  0  0  0  0
    1.4923   20.7283    7.9706 C   0  0  0  0  0  0  0  0  0  0  0  0
    1.4438   23.1113    2.4217 C   0  0  1  0  0  0  0  0  0  0  0  0
    2.1193   23.7656    1.2137 C   0  0  2  0  0  0  0  0  0  0  0  0
    1.4820   24.3092    0.7450 H   0  0  0  0  0  0  0  0  0  0  0  0
    2.4526   23.0840    0.6251 H   0  0  0  0  0  0  0  0  0  0  0  0
    2.8486   24.3138    1.5131 H   0  0  0  0  0  0  0  0  0  0  0  0
    0.2716   22.2903    1.8893 C   0  0  2  0  0  0  0  0  0  0  0  0
   -0.2174   21.9161    2.6249 H   0  0  0  0  0  0  0  0  0  0  0  0
    0.6044   21.5811    1.3332 H   0  0  0  0  0  0  0  0  0  0  0  0
   -0.3073   22.8568    1.3747 H   0  0  0  0  0  0  0  0  0  0  0  0
    0.9264   24.2569    3.3030 C   0  0  2  0  0  0  0  0  0  0  0  0
    0.4604   24.8942    2.7564 H   0  0  0  0  0  0  0  0  0  0  0  0
    1.6665   24.6877    3.7367 H   0  0  0  0  0  0  0  0  0  0  0  0
    0.3272   23.9054    3.9650 H   0  0  0  0  0  0  0  0  0  0  0  0
    6.0713   21.1213    2.9319 C   0  0  2  0  0  0  0  0  0  0  0  0
    6.6498   21.4710    3.6144 H   0  0  0  0  0  0  0  0  0  0  0  0
    6.1740   21.6385    2.1290 H   0  0  0  0  0  0  0  0  0  0  0  0
    6.3002   20.2068    2.7541 H   0  0  0  0  0  0  0  0  0  0  0  0
    4.9352   19.6148   10.2463 C   0  0  2  0  0  0  0  0  0  0  0  0
    4.6876   18.9839   10.9286 H   0  0  0  0  0  0  0  0  0  0  0  0
    5.3061   20.3995   10.6564 H   0  0  0  0  0  0  0  0  0  0  0  0
    5.5892   19.2156    9.6669 H   0  0  0  0  0  0  0  0  0  0  0  0
    0.3715   21.7885   10.0594 C   0  0  1  0  0  0  0  0  0  0  0  0
   -0.9507   21.0465    9.8223 C   0  0  2  0  0  0  0  0  0  0  0  0
   -1.6182   21.3815   10.4257 H   0  0  0  0  0  0  0  0  0  0  0  0
   -0.8237   20.1081    9.9759 H   0  0  0  0  0  0  0  0  0  0  0  0
   -1.2381   21.1888    8.9172 H   0  0  0  0  0  0  0  0  0  0  0  0
    0.5866   21.7991   11.5811 C   0  0  2  0  0  0  0  0  0  0  0  0
    1.3750   22.3062   11.7889 H   0  0  0  0  0  0  0  0  0  0  0  0
    0.6932   20.8997   11.8950 H   0  0  0  0  0  0  0  0  0  0  0  0
   -0.1734   22.2006   12.0080 H   0  0  0  0  0  0  0  0  0  0  0  0
    0.2513   23.2395    9.6161 C   0  0  2  0  0  0  0  0  0  0  0  0
    1.0812   23.6943    9.7822 H   0  0  0  0  0  0  0  0  0  0  0  0
   -0.4512   23.6667   10.1097 H   0  0  0  0  0  0  0  0  0  0  0  0
    0.0498   23.2721    8.6797 H   0  0  0  0  0  0  0  0  0  0  0  0
  1  4  2  0
  1  3  1  0
  2  1  1  0
  3 25  1  0
  1  5  1  6
  5  6  1  0
  7  2  1  0
  7 14  2  0
  8  7  1  0
  9  8  2  0
  9 11  1  0
 10  9  1  0
 11 12  2  0
 12 13  1  0
 12 14  1  0
 14 15  1  0
 15 18  1  0
 15 16  1  6
 17 15  1  0
 18 25  2  0
 18 19  1  0
 19 21  2  0
 20 19  1  0
 21 22  1  0
 21 43  1  0
 22 23  1  0
 24 22  2  0
 47 24  1  6
 25 24  1  0
 26  8  1  1
 26 35  1  0
 27 30  1  1
 27 26  1  0
 28 27  1  0
 29 27  1  0
 31 26  1  0
 31 32  1  1
 33 31  1  0
 34 31  1  0
 35 37  1  1
 35 38  1  0
 36 35  1  0
 39 11  1  0
 39 40  1  1
 41 39  1  0
 42 39  1  0
 43 45  1  1
 43 44  1  0
 46 43  1  0
 47 52  1  0
 48 50  1  1
 48 47  1  0
 48 49  1  0
 51 48  1  0
 52 53  1  6
 52 54  1  0
 52 55  1  0
 56 57  1  6
 56 47  1  0
 56 58  1  0
 59 56  1  0
M  END
$$$$
