out_1002526
     RDKit          3D

 51 56  0  0  1  0  0  0  0  0999 V2000
   -5.6175    8.5778   19.0266 Br  0  0  0  0  0  0  0  0  0  0  0  0
    0.9821    3.2465   15.5155 O   0  0  0  0  0  0  0  0  0  0  0  0
   -1.7246    3.9421   19.2155 N   0  0  0  0  0  0  0  0  0  0  0  0
   -1.8086    3.1810   20.3346 N   0  0  0  0  0  0  0  0  0  0  0  0
   -3.7159   -2.5285   15.4374 N   0  0  0  0  0  0  0  0  0  0  0  0
    0.0221    2.6116   19.0692 C   0  0  0  0  0  0  0  0  0  0  0  0
    1.2055    1.8744   18.8358 C   0  0  0  0  0  0  0  0  0  0  0  0
    1.7196    2.0239   18.0753 H   0  0  0  0  0  0  0  0  0  0  0  0
    1.5750    0.9352   19.7594 C   0  0  0  0  0  0  0  0  0  0  0  0
    2.3538    0.4457   19.6193 H   0  0  0  0  0  0  0  0  0  0  0  0
    0.8037    0.6860   20.9268 C   0  0  0  0  0  0  0  0  0  0  0  0
    1.0910    0.0430   21.5344 H   0  0  0  0  0  0  0  0  0  0  0  0
   -0.3602    1.3769   21.1765 C   0  0  0  0  0  0  0  0  0  0  0  0
   -0.8766    1.1958   21.9287 H   0  0  0  0  0  0  0  0  0  0  0  0
   -0.7397    2.3656   20.2524 C   0  0  0  0  0  0  0  0  0  0  0  0
   -0.6420    3.6506   18.4181 C   0  0  0  0  0  0  0  0  0  0  0  0
   -0.4277    4.3726   17.1138 C   0  0  1  0  0  0  0  0  0  0  0  0
   -1.1140    5.0653   17.0120 H   0  0  0  0  0  0  0  0  0  0  0  0
    0.9426    5.0083   16.9946 C   0  0  0  0  0  0  0  0  0  0  0  0
    1.6783    4.3111   16.0617 C   0  0  0  0  0  0  0  0  0  0  0  0
    2.9965    4.6154   15.7486 C   0  0  0  0  0  0  0  0  0  0  0  0
    3.4846    4.1154   15.1354 H   0  0  0  0  0  0  0  0  0  0  0  0
    3.5390    5.7056   16.4016 C   0  0  0  0  0  0  0  0  0  0  0  0
    4.4165    5.9483   16.2132 H   0  0  0  0  0  0  0  0  0  0  0  0
    2.8226    6.4507   17.3277 C   0  0  0  0  0  0  0  0  0  0  0  0
    3.2214    7.1819   17.7419 H   0  0  0  0  0  0  0  0  0  0  0  0
    1.5005    6.1025   17.6406 C   0  0  0  0  0  0  0  0  0  0  0  0
    1.0115    6.5916   18.2624 H   0  0  0  0  0  0  0  0  0  0  0  0
   -0.4186    3.4677   15.8396 C   0  0  2  0  0  0  0  0  0  0  0  0
   -0.8138    3.9835   15.1066 H   0  0  0  0  0  0  0  0  0  0  0  0
   -1.1280    2.1420   15.8996 C   0  0  0  0  0  0  0  0  0  0  0  0
   -2.5247    2.1268   15.9833 C   0  0  0  0  0  0  0  0  0  0  0  0
   -2.9901    2.9268   16.0722 H   0  0  0  0  0  0  0  0  0  0  0  0
   -3.2118    0.9376   15.9351 C   0  0  0  0  0  0  0  0  0  0  0  0
   -4.1381    0.9334   16.0079 H   0  0  0  0  0  0  0  0  0  0  0  0
   -2.5182   -0.2628   15.7773 C   0  0  0  0  0  0  0  0  0  0  0  0
   -1.1166   -0.2548   15.7125 C   0  0  0  0  0  0  0  0  0  0  0  0
   -0.6482   -1.0527   15.6197 H   0  0  0  0  0  0  0  0  0  0  0  0
   -0.4399    0.9376   15.7863 C   0  0  0  0  0  0  0  0  0  0  0  0
    0.4894    0.9410   15.7603 H   0  0  0  0  0  0  0  0  0  0  0  0
   -3.1956   -1.5142   15.6122 C   0  0  0  0  0  0  0  0  0  0  0  0
   -2.6334    5.0339   19.0915 C   0  0  0  0  0  0  0  0  0  0  0  0
   -2.1828    6.3277   19.2955 C   0  0  0  0  0  0  0  0  0  0  0  0
   -1.2798    6.4796   19.4543 H   0  0  0  0  0  0  0  0  0  0  0  0
   -3.0551    7.3907   19.2662 C   0  0  0  0  0  0  0  0  0  0  0  0
   -2.7563    8.2611   19.3969 H   0  0  0  0  0  0  0  0  0  0  0  0
   -4.4064    7.1200   19.0340 C   0  0  0  0  0  0  0  0  0  0  0  0
   -4.8729    5.8437   18.8161 C   0  0  0  0  0  0  0  0  0  0  0  0
   -5.7757    5.6963   18.6519 H   0  0  0  0  0  0  0  0  0  0  0  0
   -3.9901    4.7847   18.8429 C   0  0  0  0  0  0  0  0  0  0  0  0
   -4.2917    3.9172   18.6982 H   0  0  0  0  0  0  0  0  0  0  0  0
  1 47  1  0
  2 29  1  0
  2 20  1  0
  3  4  1  0
  5 41  3  0
  6 15  1  0
  7  6  1  0
  7  9  2  0
  8  7  1  0
  9 11  1  0
 10  9  1  0
 11 13  2  0
 11 12  1  0
 13 14  1  0
 15  4  2  0
 15 13  1  0
 16  6  2  0
 16  3  1  0
 17 18  1  6
 17 16  1  0
 19 17  1  0
 19 27  2  0
 20 19  1  0
 21 20  2  0
 21 23  1  0
 22 21  1  0
 23 25  2  0
 24 23  1  0
 25 27  1  0
 25 26  1  0
 27 28  1  0
 29 30  1  6
 29 31  1  0
 29 17  1  0
 31 32  2  0
 32 33  1  0
 34 32  1  0
 34 35  1  0
 36 34  2  0
 37 36  1  0
 37 39  2  0
 38 37  1  0
 39 31  1  0
 40 39  1  0
 41 36  1  0
 42  3  1  0
 42 43  2  0
 43 44  1  0
 45 43  1  0
 45 46  1  0
 47 45  2  0
 48 50  2  0
 48 47  1  0
 49 48  1  0
 50 42  1  0
 51 50  1  0
M  END
$$$$
