out_487848
     RDKit          3D

 24 25  0  0  0  0  0  0  0  0999 V2000
    3.7554    2.1844    9.9521 N   0  0  0  0  0  0  0  0  0  0  0  0
   -5.0816    9.7334   13.7888 N   0  0  0  0  0  0  0  0  0  0  0  0
    3.0579    1.8857   11.0513 C   0  0  0  0  0  0  0  0  0  0  0  0
    3.2812    1.1124   11.5164 H   0  0  0  0  0  0  0  0  0  0  0  0
    2.0258    2.6608   11.5296 C   0  0  0  0  0  0  0  0  0  0  0  0
    1.5681    2.4078   12.2966 H   0  0  0  0  0  0  0  0  0  0  0  0
    1.6763    3.8162   10.8595 C   0  0  0  0  0  0  0  0  0  0  0  0
    2.4047    4.1481    9.7156 C   0  0  0  0  0  0  0  0  0  0  0  0
    2.2076    4.9178    9.2329 H   0  0  0  0  0  0  0  0  0  0  0  0
    3.4201    3.3085    9.3211 C   0  0  0  0  0  0  0  0  0  0  0  0
    3.9054    3.5408    8.5629 H   0  0  0  0  0  0  0  0  0  0  0  0
    0.6067    4.6658   11.3400 C   0  0  0  0  0  0  0  0  0  0  0  0
   -0.2729    5.3727   11.7368 C   0  0  0  0  0  0  0  0  0  0  0  0
   -1.2788    6.2123   12.1666 C   0  0  0  0  0  0  0  0  0  0  0  0
   -2.1360    6.9659   12.5280 C   0  0  0  0  0  0  0  0  0  0  0  0
   -3.1389    7.8962   12.9512 C   0  0  0  0  0  0  0  0  0  0  0  0
   -4.0079    7.5992   13.9938 C   0  0  0  0  0  0  0  0  0  0  0  0
   -3.9586    6.7820   14.4346 H   0  0  0  0  0  0  0  0  0  0  0  0
   -4.9509    8.5484   14.3640 C   0  0  0  0  0  0  0  0  0  0  0  0
   -5.5297    8.3376   15.0605 H   0  0  0  0  0  0  0  0  0  0  0  0
   -4.2504   10.0115   12.7815 C   0  0  0  0  0  0  0  0  0  0  0  0
   -4.3314   10.8333   12.3539 H   0  0  0  0  0  0  0  0  0  0  0  0
   -3.2675    9.1297   12.3385 C   0  0  0  0  0  0  0  0  0  0  0  0
   -2.7045    9.3674   11.6376 H   0  0  0  0  0  0  0  0  0  0  0  0
  1  3  2  0
  2 19  2  0
  3  4  1  0
  3  5  1  0
  5  6  1  0
  7 12  1  0
  7  5  2  0
  8  7  1  0
  9  8  1  0
 10  8  2  0
 10  1  1  0
 11 10  1  0
 12 13  3  0
 13 14  1  0
 14 15  3  0
 15 16  1  0
 16 17  2  0
 17 19  1  0
 17 18  1  0
 19 20  1  0
 21  2  1  0
 22 21  1  0
 23 21  2  0
 23 16  1  0
 24 23  1  0
M  END
$$$$
