out_1130258
     RDKit          3D

 52 55  0  0  1  0  0  0  0  0999 V2000
    2.8173    6.8917   20.4043 O   0  0  0  0  0  0  0  0  0  0  0  0
   -0.8172    2.3861   17.5229 O   0  0  0  0  0  0  0  0  0  0  0  0
   -1.4844    2.1601   17.0639 H   0  0  0  0  0  0  0  0  0  0  0  0
    1.3322    0.0517   19.3326 O   0  0  0  0  0  0  0  0  0  0  0  0
    0.9543   -0.6678   19.1209 H   0  0  0  0  0  0  0  0  0  0  0  0
    3.0431    8.0724   21.2000 C   0  0  2  0  0  0  0  0  0  0  0  0
    2.1863    8.4243   21.5496 H   0  0  0  0  0  0  0  0  0  0  0  0
    3.4769    8.7783   20.6587 H   0  0  0  0  0  0  0  0  0  0  0  0
    3.5540    5.7744   20.9562 C   0  0  2  0  0  0  0  0  0  0  0  0
    4.4599    5.7453   20.5332 H   0  0  0  0  0  0  0  0  0  0  0  0
    2.8180    4.5062   20.6143 C   0  0  0  0  0  0  0  0  0  0  0  0
    3.1502    3.8577   19.5026 C   0  0  0  0  0  0  0  0  0  0  0  0
    3.9060    4.1684   19.0170 H   0  0  0  0  0  0  0  0  0  0  0  0
    2.4114    2.6710   18.9642 C   0  0  2  0  0  0  0  0  0  0  0  0
    2.9844    1.8675   19.0460 H   0  0  0  0  0  0  0  0  0  0  0  0
    2.2224    2.8138   18.0031 H   0  0  0  0  0  0  0  0  0  0  0  0
    1.0935    2.4267   19.7068 C   0  0  1  0  0  0  0  0  0  0  0  0
    0.4877    3.1758   19.4395 H   0  0  0  0  0  0  0  0  0  0  0  0
    0.3909    1.1317   19.2399 C   0  0  1  0  0  0  0  0  0  0  0  0
    0.0014    1.2480   17.7619 C   0  0  2  0  0  0  0  0  0  0  0  0
    0.8220    1.3144   17.2112 H   0  0  0  0  0  0  0  0  0  0  0  0
   -0.4857    0.4314   17.4864 H   0  0  0  0  0  0  0  0  0  0  0  0
    1.6617    4.0645   21.4991 C   0  0  1  0  0  0  0  0  0  0  0  0
    0.8670    4.6089   21.2309 H   0  0  0  0  0  0  0  0  0  0  0  0
    1.2947    2.5728   21.2447 C   0  0  2  0  0  0  0  0  0  0  0  0
    2.4141    1.6526   21.7620 C   0  0  2  0  0  0  0  0  0  0  0  0
    2.3821    1.6181   22.7398 H   0  0  0  0  0  0  0  0  0  0  0  0
    3.2832    2.0022   21.4748 H   0  0  0  0  0  0  0  0  0  0  0  0
    2.2893    0.7512   21.3999 H   0  0  0  0  0  0  0  0  0  0  0  0
   -0.0280    2.2396   21.9528 C   0  0  1  0  0  0  0  0  0  0  0  0
    0.1153    2.2677   22.9330 H   0  0  0  0  0  0  0  0  0  0  0  0
   -0.6985    2.9315   21.7258 H   0  0  0  0  0  0  0  0  0  0  0  0
   -0.5778    0.8709   21.5701 C   0  0  1  0  0  0  0  0  0  0  0  0
    0.0778    0.1679   21.8079 H   0  0  0  0  0  0  0  0  0  0  0  0
   -1.4148    0.6939   22.0687 H   0  0  0  0  0  0  0  0  0  0  0  0
   -0.8527    0.8357   20.0738 C   0  0  1  0  0  0  0  0  0  0  0  0
   -1.5526    1.5024   19.8572 H   0  0  0  0  0  0  0  0  0  0  0  0
   -1.2006   -0.0583   19.8306 H   0  0  0  0  0  0  0  0  0  0  0  0
    1.9421    4.3836   22.9767 C   0  0  1  0  0  0  0  0  0  0  0  0
    1.1187    4.2328   23.5051 H   0  0  0  0  0  0  0  0  0  0  0  0
    2.6392    3.7682   23.3168 H   0  0  0  0  0  0  0  0  0  0  0  0
    2.4066    5.8267   23.1700 C   0  0  1  0  0  0  0  0  0  0  0  0
    1.7054    6.4402   22.8364 H   0  0  0  0  0  0  0  0  0  0  0  0
    2.5260    6.0007   24.1377 H   0  0  0  0  0  0  0  0  0  0  0  0
    3.7157    6.1244   22.4446 C   0  0  2  0  0  0  0  0  0  0  0  0
    3.9476    7.6460   22.3383 C   0  0  2  0  0  0  0  0  0  0  0  0
    3.6973    8.1025   23.1792 H   0  0  0  0  0  0  0  0  0  0  0  0
    4.8951    7.8471   22.1338 H   0  0  0  0  0  0  0  0  0  0  0  0
    4.9019    5.4124   23.0863 C   0  0  2  0  0  0  0  0  0  0  0  0
    5.0008    5.7141   24.0145 H   0  0  0  0  0  0  0  0  0  0  0  0
    5.7178    5.6216   22.5853 H   0  0  0  0  0  0  0  0  0  0  0  0
    4.7484    4.4450   23.0706 H   0  0  0  0  0  0  0  0  0  0  0  0
  1  9  1  0
  1  6  1  0
  2 20  1  0
  3  2  1  0
  5  4  1  0
  6  7  1  1
  6 46  1  0
  8  6  1  0
  9 10  1  6
 45  9  1  6
 11  9  1  0
 11 23  1  0
 12 11  2  0
 13 12  1  0
 14 15  1  6
 14 12  1  0
 14 17  1  0
 16 14  1  0
 17 18  1  6
 17 25  1  0
 19  4  1  6
 19 17  1  0
 19 36  1  0
 20 19  1  0
 20 21  1  6
 22 20  1  0
 23 24  1  6
 23 39  1  0
 25 23  1  6
 25 26  1  0
 25 30  1  0
 26 27  1  1
 28 26  1  0
 29 26  1  0
 30 31  1  1
 32 30  1  0
 33 34  1  6
 33 30  1  0
 33 35  1  0
 36 33  1  0
 36 37  1  1
 38 36  1  0
 39 42  1  0
 39 41  1  1
 39 40  1  0
 42 44  1  1
 43 42  1  0
 45 49  1  0
 45 42  1  0
 46 45  1  0
 46 47  1  1
 48 46  1  0
 49 50  1  1
 51 49  1  0
 52 49  1  0
M  END
$$$$
