out_1003587
     RDKit          3D

 30 31  0  0  1  0  0  0  0  0999 V2000
   11.5645    4.6918   10.7683 C   0  0  0  0  0  0  0  0  0  0  0  0
   10.2054    4.7441   10.9661 C   0  0  0  0  0  0  0  0  0  0  0  0
    9.6654    5.1419   10.2933 H   0  0  0  0  0  0  0  0  0  0  0  0
    9.6331    4.2854   12.0101 C   0  0  0  0  0  0  0  0  0  0  0  0
    8.6828    4.2887   12.0537 H   0  0  0  0  0  0  0  0  0  0  0  0
   10.3577    3.7719   13.0976 C   0  0  0  0  0  0  0  0  0  0  0  0
    9.9325    3.5005   13.9011 H   0  0  0  0  0  0  0  0  0  0  0  0
   11.7552    3.6846   12.9398 C   0  0  0  0  0  0  0  0  0  0  0  0
   12.2922    3.3405   13.6436 H   0  0  0  0  0  0  0  0  0  0  0  0
   12.3528    4.1059   11.7380 C   0  0  0  0  0  0  0  0  0  0  0  0
   13.2850    3.9874   11.5968 H   0  0  0  0  0  0  0  0  0  0  0  0
   12.1912    5.4322    9.6111 C   0  0  2  0  0  0  0  0  0  0  0  0
   11.5679    5.4157    8.8283 H   0  0  0  0  0  0  0  0  0  0  0  0
   13.4470    4.8813    9.2292 O   0  0  0  0  0  0  0  0  0  0  0  0
   13.6243    4.2224    9.7196 H   0  0  0  0  0  0  0  0  0  0  0  0
   12.4504    6.9330   10.0468 C   0  0  2  0  0  0  0  0  0  0  0  0
   11.5770    7.3613   10.2797 H   0  0  0  0  0  0  0  0  0  0  0  0
   13.0164    7.6036    8.8998 O   0  0  0  0  0  0  0  0  0  0  0  0
   13.7751    7.2833    8.7351 H   0  0  0  0  0  0  0  0  0  0  0  0
   13.3722    7.0427   11.2097 C   0  0  0  0  0  0  0  0  0  0  0  0
   14.7236    7.0501   11.1376 C   0  0  0  0  0  0  0  0  0  0  0  0
   15.1069    6.9924   10.2683 H   0  0  0  0  0  0  0  0  0  0  0  0
   15.6277    7.1324   12.2297 C   0  0  0  0  0  0  0  0  0  0  0  0
   16.5679    7.1717   12.1223 H   0  0  0  0  0  0  0  0  0  0  0  0
   14.9655    7.1549   13.5436 C   0  0  0  0  0  0  0  0  0  0  0  0
   15.4863    7.2013   14.3359 H   0  0  0  0  0  0  0  0  0  0  0  0
   13.5331    7.1100   13.6270 C   0  0  0  0  0  0  0  0  0  0  0  0
   13.0950    7.0984   14.4726 H   0  0  0  0  0  0  0  0  0  0  0  0
   12.8202    7.0801   12.5007 C   0  0  0  0  0  0  0  0  0  0  0  0
   11.8706    7.0865   12.5745 H   0  0  0  0  0  0  0  0  0  0  0  0
  1  2  2  0
  1 10  1  0
  2  4  1  0
  3  2  1  0
  4  5  1  0
  4  6  2  0
  6  7  1  0
  8  6  1  0
  8  9  1  0
 10  8  2  0
 11 10  1  0
 12 13  1  6
 12 16  1  0
 12  1  1  0
 14 12  1  0
 14 15  1  0
 16 17  1  1
 16 20  1  0
 18 16  1  0
 19 18  1  0
 20 29  1  0
 21 20  2  0
 21 23  1  0
 22 21  1  0
 23 25  2  0
 24 23  1  0
 25 27  1  0
 25 26  1  0
 27 28  1  0
 29 30  1  0
 29 27  2  0
M  END
$$$$
