out_207848
     RDKit          3D

 14 14  0  0  0  0  0  0  0  0999 V2000
    8.4056    0.2445   16.2615 O   0  0  0  0  0  0  0  0  0  0  0  0
   10.0315    1.0950   17.5074 O   0  0  0  0  0  0  0  0  0  0  0  0
    5.8511    1.7452   18.9583 N   0  0  0  0  0  0  0  0  0  0  0  0
    6.5764    1.3866   17.8595 N   0  0  0  0  0  0  0  0  0  0  0  0
    9.8741    0.4915   20.2866 O   0  0  0  0  0  0  0  0  0  0  0  0
    8.8840    1.1246   20.6577 N   0  0  0  0  0  0  0  0  0  0  0  0
    8.7459    1.5711   21.7793 O   0  0  0  0  0  0  0  0  0  0  0  0
    8.8610    0.8030   17.3407 C   0  0  0  0  0  0  0  0  0  0  0  0
    7.8197    1.3255   19.7180 C   0  0  0  0  0  0  0  0  0  0  0  0
    6.5738    1.7281   20.0885 C   0  0  0  0  0  0  0  0  0  0  0  0
    6.2776    1.9500   20.9636 H   0  0  0  0  0  0  0  0  0  0  0  0
    7.7980    1.1225   18.3220 C   0  0  0  0  0  0  0  0  0  0  0  0
    8.9800    0.2427   15.6418 H   0  0  0  0  0  0  0  0  0  0  0  0
    5.0017    1.9308   18.8960 H   0  0  0  0  0  0  0  0  0  0  0  0
  1  8  1  0
  3 10  1  0
  4 12  2  0
  4  3  1  0
  5  6  1  0
  6  7  2  0
  8  2  2  0
  8 12  1  0
  9 10  2  0
  9  6  1  0
 10 11  1  0
 12  9  1  0
 13  1  1  0
 14  3  1  0
M  CHG  2   5  -1   6   1
M  END
$$$$
