out_700744
     RDKit          3D

 20 19  0  0  0  0  0  0  0  0999 V2000
   10.5394    1.6231    2.4360 O   0  0  0  0  0  0  0  0  0  0  0  0
    9.4523    1.6183    4.7647 O   0  0  0  0  0  0  0  0  0  0  0  0
   11.2274    1.6864    1.1680 C   0  0  2  0  0  0  0  0  0  0  0  0
   11.8452    0.9184    1.0680 H   0  0  0  0  0  0  0  0  0  0  0  0
   11.7504    2.5248    1.0984 H   0  0  0  0  0  0  0  0  0  0  0  0
   10.2749    0.8360    1.2129 C   0  0  0  0  0  3  0  0  0  0  0  0
   11.0226    0.2018    1.0651 H   0  0  0  0  0  0  0  0  0  0  0  0
    9.4492    0.2998    1.3433 H   0  0  0  0  0  0  0  0  0  0  0  0
   10.9507    0.5745    3.3098 C   0  0  1  0  0  0  0  0  0  0  0  0
   10.4064   -0.2377    3.1562 H   0  0  0  0  0  0  0  0  0  0  0  0
   11.9033    0.3511    3.1562 H   0  0  0  0  0  0  0  0  0  0  0  0
   10.7626    1.0510    4.6097 C   0  0  1  0  0  0  0  0  0  0  0  0
   11.4446    1.7402    4.8111 H   0  0  0  0  0  0  0  0  0  0  0  0
   10.8773    0.3081    5.2545 H   0  0  0  0  0  0  0  0  0  0  0  0
    8.8957    1.4571    6.0849 C   0  0  0  0  0  3  0  0  0  0  0  0
    9.2719    2.1426    6.6921 H   0  0  0  0  0  0  0  0  0  0  0  0
    9.1297    0.5649    6.4414 H   0  0  0  0  0  0  0  0  0  0  0  0
    8.5226    0.7895    5.4400 C   0  0  2  0  0  0  0  0  0  0  0  0
    8.9859    0.2878    6.1574 H   0  0  0  0  0  0  0  0  0  0  0  0
    8.1389    0.1338    4.8039 H   0  0  0  0  0  0  0  0  0  0  0  0
  1  9  1  0
  2 18  1  0
  3  6  1  0
  3  1  1  0
  3  4  1  1
  5  3  1  0
  6  8  1  0
  7  6  1  0
  9 12  1  0
  9 10  1  6
 11  9  1  0
 12  2  1  0
 12 13  1  1
 12 14  1  0
 15 17  1  0
 15 16  1  0
 18 15  1  0
 18 19  1  1
 20 18  1  0
M  RAD  2   6   2  15   2
M  END
$$$$
