out_1000987
     RDKit          3D

 52 58  0  0  0  0  0  0  0  0999 V2000
   11.3406   13.2090    6.0754 Cl  0  0  0  0  0  0  0  0  0  0  0  0
   13.3494   17.9289    9.0262 N   0  0  0  0  0  0  0  0  0  0  0  0
   14.0251   13.4118    7.3900 N   0  0  0  0  0  0  0  0  0  0  0  0
   13.6366   15.6410    8.2512 C   0  0  0  0  0  0  0  0  0  0  0  0
   14.4787   15.6215    8.6458 H   0  0  0  0  0  0  0  0  0  0  0  0
   12.8447   16.7752    8.3742 C   0  0  0  0  0  0  0  0  0  0  0  0
   11.5616   16.7710    7.8442 C   0  0  0  0  0  0  0  0  0  0  0  0
   11.0249   17.5253    7.9341 H   0  0  0  0  0  0  0  0  0  0  0  0
   11.0709   15.6536    7.1790 C   0  0  0  0  0  0  0  0  0  0  0  0
   10.2021   15.6480    6.8468 H   0  0  0  0  0  0  0  0  0  0  0  0
   11.8898   14.5543    7.0181 C   0  0  0  0  0  0  0  0  0  0  0  0
   13.1831   14.5404    7.5471 C   0  0  0  0  0  0  0  0  0  0  0  0
   14.6198   18.4793    8.8095 C   0  0  0  0  0  0  0  0  0  0  0  0
   15.6024   18.0854    7.9067 C   0  0  0  0  0  0  0  0  0  0  0  0
   15.4798   17.3563    7.3408 H   0  0  0  0  0  0  0  0  0  0  0  0
   16.7670   18.8299    7.8887 C   0  0  0  0  0  0  0  0  0  0  0  0
   17.4504   18.5868    7.3067 H   0  0  0  0  0  0  0  0  0  0  0  0
   16.9424   19.9221    8.7111 C   0  0  0  0  0  0  0  0  0  0  0  0
   17.7413   20.3970    8.6732 H   0  0  0  0  0  0  0  0  0  0  0  0
   15.9649   20.3230    9.5817 C   0  0  0  0  0  0  0  0  0  0  0  0
   16.0950   21.0619   10.1325 H   0  0  0  0  0  0  0  0  0  0  0  0
   14.7703   19.6037    9.6291 C   0  0  0  0  0  0  0  0  0  0  0  0
   13.5302   19.7587   10.3634 C   0  0  0  0  0  0  0  0  0  0  0  0
   13.1085   20.6778   11.3126 C   0  0  0  0  0  0  0  0  0  0  0  0
   13.6658   21.3720   11.5795 H   0  0  0  0  0  0  0  0  0  0  0  0
   11.8557   20.5423   11.8492 C   0  0  0  0  0  0  0  0  0  0  0  0
   11.5539   21.1708   12.4652 H   0  0  0  0  0  0  0  0  0  0  0  0
   11.0332   19.4933   11.4943 C   0  0  0  0  0  0  0  0  0  0  0  0
   10.1995   19.4095   11.8965 H   0  0  0  0  0  0  0  0  0  0  0  0
   11.4314   18.5631   10.5461 C   0  0  0  0  0  0  0  0  0  0  0  0
   10.8767   17.8605   10.2934 H   0  0  0  0  0  0  0  0  0  0  0  0
   12.6885   18.7223    9.9924 C   0  0  0  0  0  0  0  0  0  0  0  0
   15.2139   13.3825    6.6509 C   0  0  0  0  0  0  0  0  0  0  0  0
   15.7703   14.3770    5.8598 C   0  0  0  0  0  0  0  0  0  0  0  0
   15.3841   15.2192    5.7888 H   0  0  0  0  0  0  0  0  0  0  0  0
   16.9359   14.0473    5.1784 C   0  0  0  0  0  0  0  0  0  0  0  0
   17.3403   14.6884    4.6390 H   0  0  0  0  0  0  0  0  0  0  0  0
   17.5106   12.7972    5.2787 C   0  0  0  0  0  0  0  0  0  0  0  0
   18.2929   12.6142    4.8103 H   0  0  0  0  0  0  0  0  0  0  0  0
   16.9501   11.8251    6.0528 C   0  0  0  0  0  0  0  0  0  0  0  0
   17.3455   10.9856    6.1087 H   0  0  0  0  0  0  0  0  0  0  0  0
   15.7762   12.1030    6.7635 C   0  0  0  0  0  0  0  0  0  0  0  0
   14.9281   11.3376    7.6455 C   0  0  0  0  0  0  0  0  0  0  0  0
   15.0007   10.0512    8.1821 C   0  0  0  0  0  0  0  0  0  0  0  0
   15.7122    9.4911    7.9729 H   0  0  0  0  0  0  0  0  0  0  0  0
   13.9996    9.6307    9.0253 C   0  0  0  0  0  0  0  0  0  0  0  0
   14.0352    8.7731    9.3830 H   0  0  0  0  0  0  0  0  0  0  0  0
   12.9485   10.4534    9.3480 C   0  0  0  0  0  0  0  0  0  0  0  0
   12.2919   10.1406    9.9281 H   0  0  0  0  0  0  0  0  0  0  0  0
   12.8362   11.7287    8.8389 C   0  0  0  0  0  0  0  0  0  0  0  0
   12.1129   12.2748    9.0499 H   0  0  0  0  0  0  0  0  0  0  0  0
   13.8470   12.1617    7.9994 C   0  0  0  0  0  0  0  0  0  0  0  0
  1 11  1  0
  2 32  1  0
  3 12  1  0
  3 52  1  0
  4  6  2  0
  4  5  1  0
  6  2  1  0
  7  8  1  0
  7  6  1  0
  9  7  2  0
 10  9  1  0
 11  9  1  0
 11 12  2  0
 12  4  1  0
 13  2  1  0
 13 22  1  0
 14 13  2  0
 15 14  1  0
 16 14  1  0
 16 18  2  0
 17 16  1  0
 18 20  1  0
 19 18  1  0
 20 22  2  0
 20 21  1  0
 22 23  1  0
 23 24  2  0
 24 25  1  0
 24 26  1  0
 26 27  1  0
 28 26  2  0
 28 29  1  0
 30 28  1  0
 31 30  1  0
 32 23  1  0
 32 30  2  0
 33 42  1  0
 33  3  1  0
 34 33  2  0
 35 34  1  0
 36 38  2  0
 36 34  1  0
 37 36  1  0
 38 40  1  0
 39 38  1  0
 40 41  1  0
 40 42  2  0
 42 43  1  0
 43 52  2  0
 43 44  1  0
 44 46  2  0
 45 44  1  0
 46 48  1  0
 46 47  1  0
 48 49  1  0
 50 51  1  0
 50 48  2  0
 52 50  1  0
M  END
$$$$
