out_1037063
     RDKit          3D

 54 55  0  0  0  0  0  0  0  0999 V2000
   10.1303    4.8889   11.6772 O   0  0  0  0  0  0  0  0  0  0  0  0
    5.8882    5.9866   12.5726 O   0  0  0  0  0  0  0  0  0  0  0  0
    6.4988    2.6004    5.8647 O   0  0  0  0  0  0  0  0  0  0  0  0
    8.2035    4.0326   12.4813 O   0  0  0  0  0  0  0  0  0  0  0  0
    8.5349    4.3602   10.1200 C   0  0  0  0  0  0  0  0  0  0  0  0
    7.8427    6.9008   11.9120 O   0  0  0  0  0  0  0  0  0  0  0  0
    8.9317    4.4377   11.5313 C   0  0  0  0  0  0  0  0  0  0  0  0
    6.9771    4.6515    8.1963 C   0  0  0  0  0  0  0  0  0  0  0  0
    4.2096    4.6211    6.0711 O   0  0  0  0  0  0  0  0  0  0  0  0
    6.1050    5.4922    5.3322 O   0  0  0  0  0  0  0  0  0  0  0  0
    8.3639    3.6500    5.1875 O   0  0  0  0  0  0  0  0  0  0  0  0
    7.8307    3.7373    7.4788 C   0  0  0  0  0  0  0  0  0  0  0  0
    6.8222    6.3093   11.6701 C   0  0  0  0  0  0  0  0  0  0  0  0
    8.1103    3.2655    3.8319 C   0  0  2  0  0  0  0  0  0  0  0  0
    8.5378    3.8995    3.2347 H   0  0  0  0  0  0  0  0  0  0  0  0
    7.1555    3.2963    3.6647 H   0  0  0  0  0  0  0  0  0  0  0  0
    9.3261    3.5490    9.3669 C   0  0  0  0  0  0  0  0  0  0  0  0
   10.1042    3.1956    9.7326 H   0  0  0  0  0  0  0  0  0  0  0  0
    7.4829    3.2861    6.0936 C   0  0  0  0  0  0  0  0  0  0  0  0
    5.3086    6.2710    9.7535 C   0  0  0  0  0  0  0  0  0  0  0  0
    4.7450    6.8202   10.2500 H   0  0  0  0  0  0  0  0  0  0  0  0
    4.9951    5.9758    8.4169 C   0  0  0  0  0  0  0  0  0  0  0  0
    4.2070    6.3037    8.0474 H   0  0  0  0  0  0  0  0  0  0  0  0
    8.9750    3.2410    8.0386 C   0  0  0  0  0  0  0  0  0  0  0  0
    9.5310    2.6920    7.5343 H   0  0  0  0  0  0  0  0  0  0  0  0
    3.7258    4.5309    4.6965 C   0  0  2  0  0  0  0  0  0  0  0  0
    4.3109    3.9694    4.1641 H   0  0  0  0  0  0  0  0  0  0  0  0
    3.6838    5.4107    4.2901 H   0  0  0  0  0  0  0  0  0  0  0  0
    6.4393    5.7560   10.3311 C   0  0  0  0  0  0  0  0  0  0  0  0
    7.3040    4.9340    9.5472 C   0  0  0  0  0  0  0  0  0  0  0  0
    5.4385    5.1057    6.1636 C   0  0  0  0  0  0  0  0  0  0  0  0
    5.7205    7.7385   14.1927 C   0  0  2  0  0  0  0  0  0  0  0  0
    6.1164    8.3049   13.5267 H   0  0  0  0  0  0  0  0  0  0  0  0
    6.0118    8.0162   15.0640 H   0  0  0  0  0  0  0  0  0  0  0  0
    4.7637    7.8029   14.1397 H   0  0  0  0  0  0  0  0  0  0  0  0
    8.6282    1.8598    3.5236 C   0  0  2  0  0  0  0  0  0  0  0  0
    8.1857    1.5194    2.7431 H   0  0  0  0  0  0  0  0  0  0  0  0
    8.4495    1.2827    4.2702 H   0  0  0  0  0  0  0  0  0  0  0  0
    9.5745    1.8948    3.3660 H   0  0  0  0  0  0  0  0  0  0  0  0
   10.6527    4.9772   13.0328 C   0  0  2  0  0  0  0  0  0  0  0  0
   10.7654    4.0920   13.4135 H   0  0  0  0  0  0  0  0  0  0  0  0
   10.0506    5.4853   13.5985 H   0  0  0  0  0  0  0  0  0  0  0  0
   11.9565    5.6619   12.9154 C   0  0  2  0  0  0  0  0  0  0  0  0
   11.8506    6.4664   12.4026 H   0  0  0  0  0  0  0  0  0  0  0  0
   12.5836    5.0826   12.4754 H   0  0  0  0  0  0  0  0  0  0  0  0
   12.2834    5.8808   13.7908 H   0  0  0  0  0  0  0  0  0  0  0  0
    5.8317    5.2146    7.6543 C   0  0  0  0  0  0  0  0  0  0  0  0
    2.3404    3.9198    4.7890 C   0  0  2  0  0  0  0  0  0  0  0  0
    1.9612    3.8512    3.9104 H   0  0  0  0  0  0  0  0  0  0  0  0
    1.7817    4.4767    5.3367 H   0  0  0  0  0  0  0  0  0  0  0  0
    2.4023    3.0455    5.1808 H   0  0  0  0  0  0  0  0  0  0  0  0
    6.1048    6.4348   13.9745 C   0  0  1  0  0  0  0  0  0  0  0  0
    5.6058    5.8554   14.5707 H   0  0  0  0  0  0  0  0  0  0  0  0
    7.0456    6.3439   14.1916 H   0  0  0  0  0  0  0  0  0  0  0  0
  1 40  1  0
  2 52  1  0
  3 19  2  0
  5  7  1  0
  7  1  1  0
  7  4  2  0
  8 30  2  0
  9 31  1  0
 10 31  2  0
 11 19  1  0
 12 24  2  0
 12  8  1  0
 13  6  2  0
 13  2  1  0
 14 11  1  0
 14 15  1  6
 16 14  1  0
 17 18  1  0
 17  5  2  0
 19 12  1  0
 20 21  1  0
 20 29  2  0
 22 20  1  0
 23 22  1  0
 24 17  1  0
 25 24  1  0
 26 48  1  0
 26  9  1  0
 26 27  1  6
 28 26  1  0
 29 13  1  0
 30  5  1  0
 30 29  1  0
 31 47  1  0
 32 34  1  1
 33 32  1  0
 35 32  1  0
 36 14  1  0
 36 38  1  1
 37 36  1  0
 39 36  1  0
 40 41  1  1
 40 42  1  0
 43 40  1  0
 43 46  1  1
 44 43  1  0
 45 43  1  0
 47  8  1  0
 47 22  2  0
 48 51  1  1
 48 50  1  0
 49 48  1  0
 52 54  1  1
 52 32  1  0
 52 53  1  0
M  END
$$$$
