out_1001979
     RDKit          3D

 66 73  0  0  0  0  0  0  0  0999 V2000
   -1.0016    0.8725   -2.4276 S   0  0  0  0  0  0  0  0  0  0  0  0
   -3.2496    5.5465   -2.8534 S   0  0  0  0  0  0  0  0  0  0  0  0
    1.5962    5.2471    1.4085 O   0  0  0  0  0  0  0  0  0  0  0  0
   -2.5648    7.1750   -0.9597 N   0  0  0  0  0  0  0  0  0  0  0  0
    1.2002    0.9637   -1.0813 N   0  0  0  0  0  0  0  0  0  0  0  0
    2.1294    6.8551    4.9397 N   0  0  0  0  0  0  0  0  0  0  0  0
    1.1057   -0.3008   -1.6228 C   0  0  0  0  0  0  0  0  0  0  0  0
   -1.1938    5.1576   -1.0075 C   0  0  0  0  0  0  0  0  0  0  0  0
   -3.6497    7.7460   -1.6179 C   0  0  0  0  0  0  0  0  0  0  0  0
   -0.0068    3.0539   -0.9879 C   0  0  0  0  0  0  0  0  0  0  0  0
   -0.3236    5.6481   -0.0392 C   0  0  0  0  0  0  0  0  0  0  0  0
   -0.4276    6.5160    0.2770 H   0  0  0  0  0  0  0  0  0  0  0  0
   -1.0347    3.8605   -1.4610 C   0  0  0  0  0  0  0  0  0  0  0  0
   -1.6278    3.5214   -2.0910 H   0  0  0  0  0  0  0  0  0  0  0  0
    0.8660    3.5789   -0.0417 C   0  0  0  0  0  0  0  0  0  0  0  0
    1.5786    3.0654    0.2623 H   0  0  0  0  0  0  0  0  0  0  0  0
    0.7115   -2.7685   -2.8019 C   0  0  0  0  0  0  0  0  0  0  0  0
    0.5921   -3.6038   -3.1941 H   0  0  0  0  0  0  0  0  0  0  0  0
    0.6860    4.8606    0.4535 C   0  0  0  0  0  0  0  0  0  0  0  0
    0.3461    7.0371    6.3416 C   0  0  0  0  0  0  0  0  0  0  0  0
   -0.2225   -1.8029   -2.9833 C   0  0  0  0  0  0  0  0  0  0  0  0
   -0.9808   -1.9695   -3.4956 H   0  0  0  0  0  0  0  0  0  0  0  0
   -4.1589    6.9969   -2.6769 C   0  0  0  0  0  0  0  0  0  0  0  0
    0.1832    1.6630   -1.4267 C   0  0  0  0  0  0  0  0  0  0  0  0
    2.1149    8.1560    5.4126 C   0  0  0  0  0  0  0  0  0  0  0  0
   -5.8605    8.6350   -3.0152 C   0  0  0  0  0  0  0  0  0  0  0  0
   -6.6090    8.9434   -3.4736 H   0  0  0  0  0  0  0  0  0  0  0  0
    2.9662    9.1982    5.1723 C   0  0  0  0  0  0  0  0  0  0  0  0
    3.7061    9.0909    4.6183 H   0  0  0  0  0  0  0  0  0  0  0  0
    2.8241    6.9413    2.5666 C   0  0  1  0  0  0  0  0  0  0  0  0
    2.8755    7.9050    2.6524 H   0  0  0  0  0  0  0  0  0  0  0  0
    3.5534    6.6635    1.9905 H   0  0  0  0  0  0  0  0  0  0  0  0
   -0.7816    6.5447    7.0084 C   0  0  0  0  0  0  0  0  0  0  0  0
   -1.2823    7.0946    7.5673 H   0  0  0  0  0  0  0  0  0  0  0  0
    1.8207   -2.5290   -2.0518 C   0  0  0  0  0  0  0  0  0  0  0  0
    2.4501   -3.2053   -1.9488 H   0  0  0  0  0  0  0  0  0  0  0  0
   -2.2814    6.0274   -1.4855 C   0  0  0  0  0  0  0  0  0  0  0  0
   -0.0339   -0.5633   -2.3974 C   0  0  0  0  0  0  0  0  0  0  0  0
    1.0754    6.1596    5.4959 C   0  0  0  0  0  0  0  0  0  0  0  0
    2.0383   -1.3201   -1.4438 C   0  0  0  0  0  0  0  0  0  0  0  0
    2.7954   -1.1821   -0.9217 H   0  0  0  0  0  0  0  0  0  0  0  0
    3.0551    6.3340    3.9442 C   0  0  2  0  0  0  0  0  0  0  0  0
    2.9535    5.3703    3.8903 H   0  0  0  0  0  0  0  0  0  0  0  0
    3.9639    6.5217    4.2286 H   0  0  0  0  0  0  0  0  0  0  0  0
   -5.2732    7.4375   -3.3731 C   0  0  0  0  0  0  0  0  0  0  0  0
   -5.6198    6.9336   -4.0741 H   0  0  0  0  0  0  0  0  0  0  0  0
    1.0021    8.3093    6.2705 C   0  0  0  0  0  0  0  0  0  0  0  0
    0.7050    4.8376    5.3366 C   0  0  0  0  0  0  0  0  0  0  0  0
    1.1911    4.2629    4.7899 H   0  0  0  0  0  0  0  0  0  0  0  0
    1.5429    6.6041    1.8851 C   0  0  2  0  0  0  0  0  0  0  0  0
    0.8038    6.7056    2.5053 H   0  0  0  0  0  0  0  0  0  0  0  0
    1.3998    7.2095    1.1399 H   0  0  0  0  0  0  0  0  0  0  0  0
   -5.3233    9.3726   -1.9660 C   0  0  0  0  0  0  0  0  0  0  0  0
   -5.7159   10.1868   -1.7478 H   0  0  0  0  0  0  0  0  0  0  0  0
   -4.2480    8.9530   -1.2502 C   0  0  0  0  0  0  0  0  0  0  0  0
   -3.9205    9.4550   -0.5368 H   0  0  0  0  0  0  0  0  0  0  0  0
   -1.1311    5.2323    6.8221 C   0  0  0  0  0  0  0  0  0  0  0  0
   -1.8831    4.8951    7.2535 H   0  0  0  0  0  0  0  0  0  0  0  0
    0.7736    9.5546    6.8466 C   0  0  0  0  0  0  0  0  0  0  0  0
    0.0466    9.6810    7.4129 H   0  0  0  0  0  0  0  0  0  0  0  0
    1.6155   10.5815    6.5794 C   0  0  0  0  0  0  0  0  0  0  0  0
    1.4503   11.4149    6.9569 H   0  0  0  0  0  0  0  0  0  0  0  0
   -0.3972    4.4027    6.0107 C   0  0  0  0  0  0  0  0  0  0  0  0
   -0.6606    3.5157    5.9175 H   0  0  0  0  0  0  0  0  0  0  0  0
    2.7036   10.4148    5.7705 C   0  0  0  0  0  0  0  0  0  0  0  0
    3.2755   11.1314    5.6185 H   0  0  0  0  0  0  0  0  0  0  0  0
  1 38  1  0
  1 24  1  0
  2 23  1  0
  2 37  1  0
  3 50  1  0
  6 25  1  0
  6 39  1  0
  7 40  2  0
  7  5  1  0
  8 11  2  0
  9 55  1  0
  9  4  1  0
 10 15  1  0
 11 12  1  0
 11 19  1  0
 13  8  1  0
 13 10  2  0
 14 13  1  0
 15 16  1  0
 15 19  2  0
 17 35  2  0
 18 17  1  0
 19  3  1  0
 20 33  2  0
 21 17  1  0
 21 38  2  0
 22 21  1  0
 23  9  2  0
 24  5  2  0
 24 10  1  0
 25 47  1  0
 26 53  1  0
 27 26  1  0
 28 25  2  0
 28 65  1  0
 29 28  1  0
 30 31  1  1
 30 42  1  0
 32 30  1  0
 33 34  1  0
 35 36  1  0
 35 40  1  0
 37  8  1  0
 37  4  2  0
 38  7  1  0
 39 20  1  0
 40 41  1  0
 42 44  1  1
 42  6  1  0
 43 42  1  0
 45 26  2  0
 45 23  1  0
 46 45  1  0
 47 20  1  0
 47 59  2  0
 48 39  2  0
 48 63  1  0
 49 48  1  0
 50 51  1  1
 50 30  1  0
 52 50  1  0
 53 54  1  0
 53 55  2  0
 55 56  1  0
 57 33  1  0
 57 58  1  0
 59 60  1  0
 61 59  1  0
 61 62  1  0
 63 57  2  0
 64 63  1  0
 65 61  2  0
 66 65  1  0
M  END
$$$$
