out_1002621
     RDKit          3D

 40 41  0  0  1  0  0  0  0  0999 V2000
    3.8126    7.5455    6.4855 S   0  0  2  0  0  0  0  0  0  0  0  0
    4.7290    8.4732    5.8723 O   0  0  0  0  0  0  0  0  0  0  0  0
    2.4037    7.8680    6.4733 O   0  0  0  0  0  0  0  0  0  0  0  0
    5.5877    1.2475    9.0129 O   0  0  0  0  0  0  0  0  0  0  0  0
    4.2662    7.4189    8.0249 N   0  0  0  0  0  0  0  0  0  0  0  0
    5.1109    7.2608    8.0594 H   0  0  0  0  0  0  0  0  0  0  0  0
    4.0729    5.1363    9.0096 C   0  0  0  0  0  0  0  0  0  0  0  0
    3.5700    6.5632    9.0154 C   0  0  1  0  0  0  0  0  0  0  0  0
    2.5953    6.5537    8.7920 H   0  0  0  0  0  0  0  0  0  0  0  0
    3.2078    4.0650    8.8335 C   0  0  0  0  0  0  0  0  0  0  0  0
    2.2808    4.2365    8.7136 H   0  0  0  0  0  0  0  0  0  0  0  0
    5.9035    3.5536    9.1732 C   0  0  0  0  0  0  0  0  0  0  0  0
    6.8316    3.3827    9.2860 H   0  0  0  0  0  0  0  0  0  0  0  0
    5.4346    4.8532    9.1838 C   0  0  0  0  0  0  0  0  0  0  0  0
    6.0469    5.5683    9.3115 H   0  0  0  0  0  0  0  0  0  0  0  0
    3.6583    2.7455    8.8273 C   0  0  0  0  0  0  0  0  0  0  0  0
    3.0454    2.0290    8.7087 H   0  0  0  0  0  0  0  0  0  0  0  0
    5.0162    2.4908    8.9968 C   0  0  0  0  0  0  0  0  0  0  0  0
    3.9663    5.9602    5.6917 C   0  0  1  0  0  0  0  0  0  0  0  0
    3.3747    5.2984    6.1519 H   0  0  0  0  0  0  0  0  0  0  0  0
    5.7830    5.1889    4.2318 C   0  0  2  0  0  0  0  0  0  0  0  0
    6.7393    5.3815    4.0613 H   0  0  0  0  0  0  0  0  0  0  0  0
    5.5951    4.2499    3.9819 H   0  0  0  0  0  0  0  0  0  0  0  0
    3.7438    7.2293   10.3826 C   0  0  2  0  0  0  0  0  0  0  0  0
    4.6982    7.3418   10.5723 H   0  0  0  0  0  0  0  0  0  0  0  0
    3.3374    6.6655   11.0742 H   0  0  0  0  0  0  0  0  0  0  0  0
    3.3056    8.1056   10.3770 H   0  0  0  0  0  0  0  0  0  0  0  0
    4.8894    6.1475    3.4557 C   0  0  2  0  0  0  0  0  0  0  0  0
    4.7892    5.8584    2.5141 H   0  0  0  0  0  0  0  0  0  0  0  0
    5.2522    7.0683    3.4747 H   0  0  0  0  0  0  0  0  0  0  0  0
    3.5627    6.0634    4.2002 C   0  0  1  0  0  0  0  0  0  0  0  0
    3.0491    5.2664    3.9173 H   0  0  0  0  0  0  0  0  0  0  0  0
    3.0157    6.8727    4.0379 H   0  0  0  0  0  0  0  0  0  0  0  0
    5.4254    5.4467    5.7097 C   0  0  1  0  0  0  0  0  0  0  0  0
    6.0300    6.1256    6.1027 H   0  0  0  0  0  0  0  0  0  0  0  0
    5.4963    4.6127    6.2377 H   0  0  0  0  0  0  0  0  0  0  0  0
    4.7165    0.1252    8.8857 C   0  0  2  0  0  0  0  0  0  0  0  0
    4.2621    0.1603    8.0186 H   0  0  0  0  0  0  0  0  0  0  0  0
    4.0505    0.1455    9.6048 H   0  0  0  0  0  0  0  0  0  0  0  0
    5.2384   -0.7022    8.9481 H   0  0  0  0  0  0  0  0  0  0  0  0
  1  5  1  1
  2  1  2  0
  3  1  2  0
  5  6  1  0
  5  8  1  0
  7  8  1  0
  7 14  1  0
  8  9  1  6
  8 24  1  0
 10  7  2  0
 11 10  1  0
 12 14  2  0
 12 13  1  0
 14 15  1  0
 16 10  1  0
 16 18  2  0
 17 16  1  0
 18  4  1  0
 18 12  1  0
 19 34  1  0
 19 20  1  1
 19  1  1  0
 21 34  1  0
 21 22  1  1
 23 21  1  0
 24 25  1  1
 24 26  1  0
 27 24  1  0
 28 30  1  6
 28 31  1  0
 28 21  1  0
 29 28  1  0
 31 19  1  0
 31 32  1  6
 33 31  1  0
 34 35  1  1
 34 36  1  0
 37 40  1  6
 37  4  1  0
 37 39  1  0
 38 37  1  0
M  END
$$$$
