out_1111618
     RDKit          3D

 41 42  0  0  1  0  0  0  0  0999 V2000
    7.9585    6.5371    3.6807 C   0  0  2  0  0  0  0  0  0  0  0  0
    8.4639    5.7659    4.9448 C   0  0  1  0  0  0  0  0  0  0  0  0
    9.2093    5.1582    4.7128 H   0  0  0  0  0  0  0  0  0  0  0  0
    8.7692    6.3968    5.6441 H   0  0  0  0  0  0  0  0  0  0  0  0
    7.2392    4.9734    5.4207 C   0  0  1  0  0  0  0  0  0  0  0  0
    7.5079    4.1345    5.8718 H   0  0  0  0  0  0  0  0  0  0  0  0
    6.6817    5.5101    6.0369 H   0  0  0  0  0  0  0  0  0  0  0  0
    6.5070    4.6896    4.1170 C   0  0  1  0  0  0  0  0  0  0  0  0
    6.9416    3.9578    3.6120 H   0  0  0  0  0  0  0  0  0  0  0  0
    5.5595    4.4544    4.2800 H   0  0  0  0  0  0  0  0  0  0  0  0
    8.9022    6.2696    2.5080 C   0  0  0  0  0  0  0  0  0  0  0  0
   11.1068    6.5628    1.7062 C   0  0  2  0  0  0  0  0  0  0  0  0
   11.3481    5.6153    1.6457 H   0  0  0  0  0  0  0  0  0  0  0  0
   11.9078    7.0914    1.9047 H   0  0  0  0  0  0  0  0  0  0  0  0
   10.7241    6.8568    0.8536 H   0  0  0  0  0  0  0  0  0  0  0  0
    7.9051    8.0900    3.9332 C   0  0  2  0  0  0  0  0  0  0  0  0
    8.8180    8.3802    4.2196 H   0  0  0  0  0  0  0  0  0  0  0  0
    6.9506    8.4159    5.0559 C   0  0  0  0  0  0  0  0  0  0  0  0
    6.0244    8.2660    4.9113 H   0  0  0  0  0  0  0  0  0  0  0  0
    7.3264    8.8947    6.2236 C   0  0  0  0  0  0  0  0  0  0  0  0
    8.2469    9.0551    6.3984 H   0  0  0  0  0  0  0  0  0  0  0  0
    6.6769    9.0795    6.8916 H   0  0  0  0  0  0  0  0  0  0  0  0
    7.5549    8.8613    2.6689 C   0  0  0  0  0  0  0  0  0  0  0  0
    8.4212    9.7412    2.0181 C   0  0  0  0  0  0  0  0  0  0  0  0
    8.0740   10.3826    0.8326 C   0  0  0  0  0  0  0  0  0  0  0  0
    8.6898   10.9685    0.4068 H   0  0  0  0  0  0  0  0  0  0  0  0
    6.8164   10.1577    0.2750 C   0  0  0  0  0  0  0  0  0  0  0  0
    5.8922    9.3340    0.9250 C   0  0  0  0  0  0  0  0  0  0  0  0
    6.2698    8.7004    2.1074 C   0  0  0  0  0  0  0  0  0  0  0  0
    5.6419    8.1426    2.5501 H   0  0  0  0  0  0  0  0  0  0  0  0
    3.6470    8.5403    1.0900 C   0  0  2  0  0  0  0  0  0  0  0  0
    3.8935    7.6018    1.2313 H   0  0  0  0  0  0  0  0  0  0  0  0
    2.7997    8.5859    0.6011 H   0  0  0  0  0  0  0  0  0  0  0  0
    3.5477    8.9865    1.9576 H   0  0  0  0  0  0  0  0  0  0  0  0
    6.6254    5.9768    3.4035 N   0  0  0  0  0  0  0  0  0  0  0  0
    8.6067    5.7073    1.4887 O   0  0  0  0  0  0  0  0  0  0  0  0
   10.1332    6.7462    2.7615 O   0  0  0  0  0  0  0  0  0  0  0  0
    4.6723    9.1945    0.3313 O   0  0  0  0  0  0  0  0  0  0  0  0
   10.1246   10.2181    2.7514 Br  0  0  0  0  0  0  0  0  0  0  0  0
    6.3641   10.9528   -1.3787 Br  0  0  0  0  0  0  0  0  0  0  0  0
    6.5084    5.8940    2.6008 H   0  0  0  0  0  0  0  0  0  0  0  0
  1 11  1  6
  1 16  1  0
  1  2  1  0
  2  5  1  0
  2  4  1  1
  3  2  1  0
  5  6  1  1
  5  7  1  0
  8 10  1  1
  8  5  1  0
  9  8  1  0
 11 37  1  0
 12 14  1  1
 12 37  1  0
 13 12  1  0
 15 12  1  0
 16 17  1  1
 16 18  1  0
 18 20  2  0
 19 18  1  0
 20 21  1  0
 20 22  1  0
 23 16  1  0
 24 23  2  0
 24 39  1  0
 25 24  1  0
 26 25  1  0
 27 25  2  0
 27 28  1  0
 28 29  2  0
 29 30  1  0
 29 23  1  0
 31 32  1  1
 31 34  1  0
 33 31  1  0
 35  1  1  0
 35  8  1  0
 36 11  2  0
 38 28  1  0
 38 31  1  0
 40 27  1  0
 41 35  1  0
M  END
$$$$
