out_1967847
     RDKit          3D

 36 39  0  0  1  0  0  0  0  0999 V2000
    3.1356    8.6480    7.1296 N   0  0  0  0  0  0  0  0  0  0  0  0
    1.8264    7.9784    7.0850 C   0  0  2  0  0  0  0  0  0  0  0  0
    1.4783    7.8321    7.9894 H   0  0  0  0  0  0  0  0  0  0  0  0
    1.8545    6.6365    6.2721 C   0  0  1  0  0  0  0  0  0  0  0  0
    2.7799    6.4165    6.0358 H   0  0  0  0  0  0  0  0  0  0  0  0
    1.2854    5.5615    7.0262 O   0  0  0  0  0  0  0  0  0  0  0  0
    0.5104    5.7452    7.2210 H   0  0  0  0  0  0  0  0  0  0  0  0
    1.0602    6.9340    4.9998 C   0  0  1  0  0  0  0  0  0  0  0  0
    0.6490    6.1174    4.6469 H   0  0  0  0  0  0  0  0  0  0  0  0
   -0.0106    7.9127    5.5008 C   0  0  1  0  0  0  0  0  0  0  0  0
   -0.5067    8.3379    4.7698 H   0  0  0  0  0  0  0  0  0  0  0  0
   -0.8505    7.1728    6.3773 O   0  0  0  0  0  0  0  0  0  0  0  0
   -1.4296    7.6667    6.6832 H   0  0  0  0  0  0  0  0  0  0  0  0
    0.8811    8.9034    6.2707 C   0  0  2  0  0  0  0  0  0  0  0  0
    0.3732    9.5266    6.8311 H   0  0  0  0  0  0  0  0  0  0  0  0
    3.1949    9.4354    5.9057 O   0  0  0  0  0  0  0  0  0  0  0  0
    1.8695    9.6009    5.3306 C   0  0  1  0  0  0  0  0  0  0  0  0
    1.6511   10.5542    5.2597 H   0  0  0  0  0  0  0  0  0  0  0  0
    1.8795    8.9699    3.9567 C   0  0  1  0  0  0  0  0  0  0  0  0
    1.0883    9.2509    3.4693 H   0  0  0  0  0  0  0  0  0  0  0  0
    2.6570    9.2806    3.4674 H   0  0  0  0  0  0  0  0  0  0  0  0
    1.9069    7.5373    4.0260 O   0  0  0  0  0  0  0  0  0  0  0  0
    3.3203    9.5712    8.2853 C   0  0  2  0  0  0  0  0  0  0  0  0
    4.1565   10.0452    8.1604 H   0  0  0  0  0  0  0  0  0  0  0  0
    3.4120    9.0325    9.0883 H   0  0  0  0  0  0  0  0  0  0  0  0
    2.2333   10.5955    8.5331 C   0  0  0  0  0  0  0  0  0  0  0  0
    2.1803   11.7503    7.7618 C   0  0  0  0  0  0  0  0  0  0  0  0
    2.8573   11.9231    7.1480 H   0  0  0  0  0  0  0  0  0  0  0  0
    1.1344   12.6453    7.8938 C   0  0  0  0  0  0  0  0  0  0  0  0
    1.1101   13.4077    7.3613 H   0  0  0  0  0  0  0  0  0  0  0  0
    0.1379   12.4183    8.7982 C   0  0  0  0  0  0  0  0  0  0  0  0
   -0.5747   13.0122    8.8635 H   0  0  0  0  0  0  0  0  0  0  0  0
    0.1872   11.3208    9.6069 C   0  0  0  0  0  0  0  0  0  0  0  0
   -0.4767   11.1830   10.2428 H   0  0  0  0  0  0  0  0  0  0  0  0
    1.2368   10.4025    9.4790 C   0  0  0  0  0  0  0  0  0  0  0  0
    1.2655    9.6560   10.0334 H   0  0  0  0  0  0  0  0  0  0  0  0
  1 23  1  0
  2  1  1  0
  2  3  1  1
  4  5  1  6
  4  6  1  0
  4  2  1  0
  6  7  1  0
  8  9  1  6
  8 10  1  0
  8  4  1  0
 10 11  1  6
 10 14  1  0
 10 12  1  0
 12 13  1  0
 14 15  1  1
 14  2  1  0
 16  1  1  0
 17 18  1  6
 17 16  1  0
 17 14  1  0
 19 22  1  0
 19 17  1  0
 19 20  1  6
 21 19  1  0
 22  8  1  0
 23 26  1  0
 23 25  1  1
 24 23  1  0
 26 35  2  0
 27 29  2  0
 27 26  1  0
 28 27  1  0
 29 31  1  0
 30 29  1  0
 31 32  1  0
 31 33  2  0
 33 34  1  0
 35 33  1  0
 35 36  1  0
M  END
$$$$
