out_2111618
     RDKit          3D

 41 43  0  0  0  0  0  0  0  0999 V2000
    9.2959    0.6840    5.5057 C   0  0  0  0  0  0  0  0  0  0  0  0
    8.3348   -0.1925    5.0149 C   0  0  0  0  0  0  0  0  0  0  0  0
    7.6565   -1.0755    5.8205 C   0  0  0  0  0  0  0  0  0  0  0  0
    7.9865   -1.0923    7.1831 C   0  0  0  0  0  0  0  0  0  0  0  0
    8.9262   -0.2813    7.7039 C   0  0  0  0  0  0  0  0  0  0  0  0
    9.1295   -0.3252    8.6106 H   0  0  0  0  0  0  0  0  0  0  0  0
    9.5952    0.6260    6.8804 C   0  0  0  0  0  0  0  0  0  0  0  0
   10.5753    1.5231    7.4659 C   0  0  0  0  0  0  0  0  0  0  0  0
   11.2236    2.4079    6.5591 C   0  0  0  0  0  0  0  0  0  0  0  0
   10.8759    2.4257    5.2396 C   0  0  0  0  0  0  0  0  0  0  0  0
   11.3066    3.0331    4.6830 H   0  0  0  0  0  0  0  0  0  0  0  0
   12.2363    3.3797    7.0072 C   0  0  0  0  0  0  0  0  0  0  0  0
    9.5420    1.9118    3.3324 C   0  0  0  0  0  0  0  0  0  0  0  0
    8.6260    2.9097    3.1396 C   0  0  0  0  0  0  0  0  0  0  0  0
    8.3064    3.4003    3.8626 H   0  0  0  0  0  0  0  0  0  0  0  0
    8.1819    3.1816    1.8642 C   0  0  0  0  0  0  0  0  0  0  0  0
    7.5531    3.8507    1.7185 H   0  0  0  0  0  0  0  0  0  0  0  0
    8.6759    2.4537    0.8135 C   0  0  0  0  0  0  0  0  0  0  0  0
    9.6310    1.4913    0.9948 C   0  0  0  0  0  0  0  0  0  0  0  0
    9.9806    1.0325    0.2663 H   0  0  0  0  0  0  0  0  0  0  0  0
   10.0683    1.2100    2.2723 C   0  0  0  0  0  0  0  0  0  0  0  0
   10.7117    0.5541    2.4154 H   0  0  0  0  0  0  0  0  0  0  0  0
    6.4686   -3.1106    5.5009 C   0  0  2  0  0  0  0  0  0  0  0  0
    5.8469   -3.2358    6.2359 H   0  0  0  0  0  0  0  0  0  0  0  0
    7.3142   -3.5087    5.7582 H   0  0  0  0  0  0  0  0  0  0  0  0
    5.9543   -3.8049    4.3225 C   0  0  2  0  0  0  0  0  0  0  0  0
    6.6208   -3.7993    3.6320 H   0  0  0  0  0  0  0  0  0  0  0  0
    5.1645   -3.3601    4.0078 H   0  0  0  0  0  0  0  0  0  0  0  0
    5.7409   -4.7122    4.5531 H   0  0  0  0  0  0  0  0  0  0  0  0
    8.0735    2.7585   -0.7892 Cl  0  0  0  0  0  0  0  0  0  0  0  0
    8.0098   -0.1885    3.7166 F   0  0  0  0  0  0  0  0  0  0  0  0
    7.3133   -1.9393    7.9754 F   0  0  0  0  0  0  0  0  0  0  0  0
    9.9530    1.6217    4.6979 N   0  0  0  0  0  0  0  0  0  0  0  0
   12.4796    3.3889    8.3074 O   0  0  0  0  0  0  0  0  0  0  0  0
   12.0555    2.7873    8.6692 H   0  0  0  0  0  0  0  0  0  0  0  0
   12.8194    4.1260    6.2616 O   0  0  0  0  0  0  0  0  0  0  0  0
   10.8220    1.4954    8.6995 O   0  0  0  0  0  0  0  0  0  0  0  0
    6.6477   -1.7940    5.3027 O   0  0  0  0  0  0  0  0  0  0  0  0
    6.7557   -2.6481    4.2410 C   0  0  2  0  0  0  0  0  0  0  0  0
    7.6822   -2.9209    4.1581 H   0  0  0  0  0  0  0  0  0  0  0  0
    6.5192   -2.1659    3.4333 H   0  0  0  0  0  0  0  0  0  0  0  0
  1  7  1  0
  2  1  2  0
  2  3  1  0
  3  4  2  0
  4  5  1  0
  4 32  1  0
  5  6  1  0
  7  8  1  0
  7  5  2  0
  8 37  2  0
  9 12  1  0
  9  8  1  0
 10  9  2  0
 11 10  1  0
 12 34  1  0
 13 33  1  0
 14 13  2  0
 14 15  1  0
 16 14  1  0
 17 16  1  0
 18 19  1  0
 18 16  2  0
 19 21  2  0
 20 19  1  0
 21 22  1  0
 21 13  1  0
 23 25  1  1
 23 24  1  0
 26 29  1  1
 27 26  1  0
 28 26  1  0
 30 18  1  0
 31  2  1  0
 33 10  1  0
 33  1  1  0
 34 35  1  0
 36 12  2  0
 38 23  1  0
 38  3  1  0
 39 26  1  0
 39 23  1  0
 39 40  1  6
 41 39  1  0
M  END
$$$$
