out_1013737
     RDKit          3D

 68 70  0  0  1  0  0  0  0  0999 V2000
    0.4641    6.0618   12.2032 O   0  0  0  0  0  0  0  0  0  0  0  0
    4.2300    3.6291   11.0957 O   0  0  0  0  0  0  0  0  0  0  0  0
   -0.9279    6.5291    6.4007 O   0  0  0  0  0  0  0  0  0  0  0  0
    2.7545    4.1662    5.2641 O   0  0  0  0  0  0  0  0  0  0  0  0
    2.4151    4.7063   11.9451 N   0  0  0  0  0  0  0  0  0  0  0  0
    0.8828    5.3811    5.4350 N   0  0  0  0  0  0  0  0  0  0  0  0
    3.2158    4.2140   10.9145 C   0  0  0  0  0  0  0  0  0  0  0  0
    1.2261    5.4572   11.4785 C   0  0  0  0  0  0  0  0  0  0  0  0
    2.8622    4.7859   13.3278 C   0  0  2  0  0  0  0  0  0  0  0  0
    2.9068    5.7168   13.5984 H   0  0  0  0  0  0  0  0  0  0  0  0
    3.7534    4.4097   13.3999 H   0  0  0  0  0  0  0  0  0  0  0  0
    1.8707    3.9991   14.2951 C   0  0  2  0  0  0  0  0  0  0  0  0
    0.9696    4.3770   14.3226 H   0  0  0  0  0  0  0  0  0  0  0  0
    2.6183    4.0299   15.7069 C   0  0  2  0  0  0  0  0  0  0  0  0
    3.5773    3.9433   15.5896 H   0  0  0  0  0  0  0  0  0  0  0  0
    2.3068    3.3076   16.2744 H   0  0  0  0  0  0  0  0  0  0  0  0
    2.2285    5.5493   16.3940 C   0  0  2  0  0  0  0  0  0  0  0  0
    1.7208    6.0649   15.7631 H   0  0  0  0  0  0  0  0  0  0  0  0
    3.0369    6.0181   16.6135 H   0  0  0  0  0  0  0  0  0  0  0  0
    1.7092    5.4166   17.1904 H   0  0  0  0  0  0  0  0  0  0  0  0
    1.9028    2.5848   13.9414 C   0  0  2  0  0  0  0  0  0  0  0  0
    2.8068    2.2536   14.0379 H   0  0  0  0  0  0  0  0  0  0  0  0
    1.6487    2.4895   13.0089 H   0  0  0  0  0  0  0  0  0  0  0  0
    1.0105    1.7792   14.7566 C   0  0  1  0  0  0  0  0  0  0  0  0
    1.6203    1.2891   15.3333 H   0  0  0  0  0  0  0  0  0  0  0  0
    0.5826    2.4282   15.3322 H   0  0  0  0  0  0  0  0  0  0  0  0
    0.0043    0.8596   14.5105 C   0  0  2  0  0  0  0  0  0  0  0  0
    0.0279    0.7394   13.5514 H   0  0  0  0  0  0  0  0  0  0  0  0
   -0.8092    1.3578   14.6896 H   0  0  0  0  0  0  0  0  0  0  0  0
   -0.2943   -0.4376   15.0010 C   0  0  2  0  0  0  0  0  0  0  0  0
    0.2592   -1.0854   14.5529 H   0  0  0  0  0  0  0  0  0  0  0  0
   -1.2180   -0.6421   14.8341 H   0  0  0  0  0  0  0  0  0  0  0  0
   -0.1247   -0.4755   15.9451 H   0  0  0  0  0  0  0  0  0  0  0  0
    2.4522    4.6010    9.7164 C   0  0  0  0  0  0  0  0  0  0  0  0
    1.3313    5.3054    9.9711 C   0  0  0  0  0  0  0  0  0  0  0  0
    0.4821    5.8042    9.0259 C   0  0  0  0  0  0  0  0  0  0  0  0
   -0.2750    6.2885    9.2556 H   0  0  0  0  0  0  0  0  0  0  0  0
    0.7829    5.5746    7.8312 C   0  0  0  0  0  0  0  0  0  0  0  0
    0.1479    5.9034    6.4468 C   0  0  0  0  0  0  0  0  0  0  0  0
    1.9440    4.7342    5.9238 C   0  0  0  0  0  0  0  0  0  0  0  0
    1.9727    4.8084    7.3698 C   0  0  0  0  0  0  0  0  0  0  0  0
    2.8288    4.3277    8.3235 C   0  0  0  0  0  0  0  0  0  0  0  0
    3.5994    3.8510    8.1034 H   0  0  0  0  0  0  0  0  0  0  0  0
    0.4471    5.4023    4.0096 C   0  0  1  0  0  0  0  0  0  0  0  0
    0.9160    4.6891    3.5504 H   0  0  0  0  0  0  0  0  0  0  0  0
   -0.4975    5.1736    3.9941 H   0  0  0  0  0  0  0  0  0  0  0  0
    0.6111    6.6014    3.2291 C   0  0  2  0  0  0  0  0  0  0  0  0
   -0.0302    7.2079    3.6548 H   0  0  0  0  0  0  0  0  0  0  0  0
   -0.0558    6.3690    1.8101 C   0  0  1  0  0  0  0  0  0  0  0  0
   -0.9851    6.1198    1.9336 H   0  0  0  0  0  0  0  0  0  0  0  0
   -0.0351    7.2000    1.3101 H   0  0  0  0  0  0  0  0  0  0  0  0
    0.5986    5.3604    1.0597 C   0  0  2  0  0  0  0  0  0  0  0  0
    0.2659    4.4991    1.3227 H   0  0  0  0  0  0  0  0  0  0  0  0
    1.5436    5.4020    1.2234 H   0  0  0  0  0  0  0  0  0  0  0  0
    0.4296    5.4968    0.1246 H   0  0  0  0  0  0  0  0  0  0  0  0
    1.8603    7.3604    3.3431 C   0  0  2  0  0  0  0  0  0  0  0  0
    2.5318    6.6623    3.2791 H   0  0  0  0  0  0  0  0  0  0  0  0
    1.8594    7.6214    4.2763 H   0  0  0  0  0  0  0  0  0  0  0  0
    2.5076    8.4877    2.6953 C   0  0  1  0  0  0  0  0  0  0  0  0
    3.4443    8.2403    2.6431 H   0  0  0  0  0  0  0  0  0  0  0  0
    2.1788    8.4751    1.7830 H   0  0  0  0  0  0  0  0  0  0  0  0
    2.5030    9.8914    3.0833 C   0  0  2  0  0  0  0  0  0  0  0  0
    2.6372    9.9709    4.0411 H   0  0  0  0  0  0  0  0  0  0  0  0
    1.6496   10.2939    2.8617 H   0  0  0  0  0  0  0  0  0  0  0  0
    3.6329   10.6353    2.3432 C   0  0  2  0  0  0  0  0  0  0  0  0
    4.3896   10.0503    2.2523 H   0  0  0  0  0  0  0  0  0  0  0  0
    3.8840   11.4125    2.8407 H   0  0  0  0  0  0  0  0  0  0  0  0
    3.3234   10.8937    1.4717 H   0  0  0  0  0  0  0  0  0  0  0  0
  3 39  2  0
  4 40  2  0
  5  9  1  0
  6 40  1  0
  6 39  1  0
  7  2  2  0
  7  5  1  0
  8  5  1  0
  8  1  2  0
  9 11  1  6
  9 10  1  0
  9 12  1  0
 12 13  1  1
 12 14  1  0
 14 16  1  1
 14 17  1  0
 15 14  1  0
 17 19  1  1
 17 20  1  0
 18 17  1  0
 21 22  1  6
 21 12  1  0
 21 24  1  0
 23 21  1  0
 24 26  1  1
 24 25  1  0
 27 29  1  6
 27 24  1  0
 27 30  1  0
 28 27  1  0
 30 33  1  1
 31 30  1  0
 32 30  1  0
 34 35  2  0
 34  7  1  0
 35  8  1  0
 36 37  1  0
 36 35  1  0
 38 36  2  0
 39 38  1  0
 40 41  1  0
 41 38  1  0
 41 42  2  0
 42 34  1  0
 43 42  1  0
 44  6  1  0
 44 45  1  6
 46 44  1  0
 47 56  1  0
 47 48  1  1
 47 44  1  0
 49 50  1  1
 49 47  1  0
 51 49  1  0
 52 54  1  6
 52 53  1  0
 52 49  1  0
 55 52  1  0
 56 58  1  1
 57 56  1  0
 59 62  1  0
 59 56  1  0
 59 60  1  6
 61 59  1  0
 62 63  1  1
 64 62  1  0
 65 67  1  1
 65 62  1  0
 66 65  1  0
 68 65  1  0
M  END
$$$$
