out_1978477
     RDKit          3D

 64 68  0  0  1  0  0  0  0  0999 V2000
    9.8310    6.0503    9.4401 N   0  0  0  0  0  0  0  0  0  0  0  0
    9.6200    7.3379    9.8195 C   0  0  0  0  0  0  0  0  0  0  0  0
    8.6239    7.7323   10.4209 O   0  0  0  0  0  0  0  0  0  0  0  0
   10.7221    8.3114    9.4233 C   0  0  2  0  0  0  0  0  0  0  0  0
   10.3484    9.2347    9.5108 H   0  0  0  0  0  0  0  0  0  0  0  0
   11.0387    8.1025    8.0085 N   0  0  0  0  0  0  0  0  0  0  0  0
   11.3802    6.8267    7.6353 C   0  0  0  0  0  0  0  0  0  0  0  0
   11.9733    6.5621    6.5994 O   0  0  0  0  0  0  0  0  0  0  0  0
   10.9737    5.7711    8.6121 C   0  0  0  0  0  0  0  0  0  0  0  0
    8.7299    5.0391    9.4585 C   0  0  1  0  0  0  0  0  0  0  0  0
    9.1360    4.1695    9.1789 H   0  0  0  0  0  0  0  0  0  0  0  0
    8.1040    4.8064   10.8283 C   0  0  2  0  0  0  0  0  0  0  0  0
    7.6402    5.6273   11.1309 H   0  0  0  0  0  0  0  0  0  0  0  0
    8.8093    4.5871   11.4883 H   0  0  0  0  0  0  0  0  0  0  0  0
    7.1077    3.6523   10.7262 C   0  0  1  0  0  0  0  0  0  0  0  0
    7.5915    2.8211   10.4913 H   0  0  0  0  0  0  0  0  0  0  0  0
    6.6733    3.5153   11.6058 H   0  0  0  0  0  0  0  0  0  0  0  0
    6.0393    3.9270    9.6742 C   0  0  2  0  0  0  0  0  0  0  0  0
    5.4850    4.6945    9.9628 H   0  0  0  0  0  0  0  0  0  0  0  0
    5.4486    3.1370    9.5925 H   0  0  0  0  0  0  0  0  0  0  0  0
    6.6616    4.2359    8.3159 C   0  0  1  0  0  0  0  0  0  0  0  0
    7.1164    3.4267    7.9699 H   0  0  0  0  0  0  0  0  0  0  0  0
    5.9487    4.4837    7.6750 H   0  0  0  0  0  0  0  0  0  0  0  0
    7.6662    5.3747    8.4219 C   0  0  1  0  0  0  0  0  0  0  0  0
    7.1984    6.2073    8.6823 H   0  0  0  0  0  0  0  0  0  0  0  0
    8.0937    5.5235    7.5423 H   0  0  0  0  0  0  0  0  0  0  0  0
   11.9259    8.2172   10.3599 C   0  0  0  0  0  0  0  0  0  0  0  0
   13.2276    8.1156    9.8942 C   0  0  0  0  0  0  0  0  0  0  0  0
   13.3943    8.0826    8.9593 H   0  0  0  0  0  0  0  0  0  0  0  0
   14.2937    8.0637   10.7937 C   0  0  0  0  0  0  0  0  0  0  0  0
   15.1812    7.9907   10.4619 H   0  0  0  0  0  0  0  0  0  0  0  0
   14.0813    8.1163   12.1611 C   0  0  0  0  0  0  0  0  0  0  0  0
   12.7731    8.1987   12.6125 C   0  0  0  0  0  0  0  0  0  0  0  0
   12.6011    8.2126   13.5462 H   0  0  0  0  0  0  0  0  0  0  0  0
   11.7128    8.2635   11.7273 C   0  0  0  0  0  0  0  0  0  0  0  0
   10.8269    8.3395   12.0615 H   0  0  0  0  0  0  0  0  0  0  0  0
   15.2235    8.1145   13.1352 C   0  0  2  0  0  0  0  0  0  0  0  0
   15.1725    8.9141   13.6994 H   0  0  0  0  0  0  0  0  0  0  0  0
   16.0717    8.1163   12.6437 H   0  0  0  0  0  0  0  0  0  0  0  0
   15.1725    7.3136   13.6969 H   0  0  0  0  0  0  0  0  0  0  0  0
   11.2276    9.2184    7.1349 C   0  0  0  0  0  0  0  0  0  0  0  0
   10.8620    9.1060    5.7946 C   0  0  0  0  0  0  0  0  0  0  0  0
   10.5051    8.2904    5.4639 H   0  0  0  0  0  0  0  0  0  0  0  0
   11.0206   10.1895    4.9482 C   0  0  0  0  0  0  0  0  0  0  0  0
   10.7831   10.1113    4.0316 H   0  0  0  0  0  0  0  0  0  0  0  0
   11.5221   11.3834    5.4256 C   0  0  0  0  0  0  0  0  0  0  0  0
   11.6282   12.1239    4.8409 H   0  0  0  0  0  0  0  0  0  0  0  0
   11.8701   11.4976    6.7559 C   0  0  0  0  0  0  0  0  0  0  0  0
   12.2088   12.3219    7.0853 H   0  0  0  0  0  0  0  0  0  0  0  0
   11.7298   10.4163    7.6163 C   0  0  0  0  0  0  0  0  0  0  0  0
   11.9763   10.4979    8.5304 H   0  0  0  0  0  0  0  0  0  0  0  0
   11.6534    4.6170    8.5843 C   0  0  0  0  0  0  0  0  0  0  0  0
   12.3091    4.5484    7.9010 H   0  0  0  0  0  0  0  0  0  0  0  0
   11.5323    3.4373    9.4598 C   0  0  0  0  0  0  0  0  0  0  0  0
   11.2622    3.5338   10.8272 C   0  0  0  0  0  0  0  0  0  0  0  0
   11.1626    4.3880   11.2304 H   0  0  0  0  0  0  0  0  0  0  0  0
   11.1408    2.3907   11.5981 C   0  0  0  0  0  0  0  0  0  0  0  0
   10.9509    2.4627   12.5262 H   0  0  0  0  0  0  0  0  0  0  0  0
   11.2943    1.1389   11.0211 C   0  0  0  0  0  0  0  0  0  0  0  0
   11.1819    0.3557   11.5458 H   0  0  0  0  0  0  0  0  0  0  0  0
   11.6088    1.0330    9.6806 C   0  0  0  0  0  0  0  0  0  0  0  0
   11.7381    0.1757    9.2913 H   0  0  0  0  0  0  0  0  0  0  0  0
   11.7358    2.1744    8.9037 C   0  0  0  0  0  0  0  0  0  0  0  0
   11.9649    2.0963    7.9853 H   0  0  0  0  0  0  0  0  0  0  0  0
  1 10  1  0
  1  2  1  0
  2  3  2  0
  4  5  1  6
  4  2  1  0
  4 27  1  0
  6  4  1  0
  7  6  1  0
  7  9  1  0
  8  7  2  0
  9  1  1  0
 10 12  1  0
 10 11  1  6
 12 13  1  1
 12 14  1  0
 15 12  1  0
 15 17  1  1
 16 15  1  0
 18 19  1  1
 18 15  1  0
 20 18  1  0
 21 24  1  0
 21 18  1  0
 21 22  1  6
 23 21  1  0
 24 25  1  1
 24 10  1  0
 26 24  1  0
 27 35  1  0
 28 27  2  0
 28 30  1  0
 29 28  1  0
 30 32  2  0
 31 30  1  0
 32 33  1  0
 32 37  1  0
 33 34  1  0
 35 36  1  0
 35 33  2  0
 37 40  1  1
 37 38  1  0
 39 37  1  0
 41 50  1  0
 41  6  1  0
 42 41  2  0
 43 42  1  0
 44 46  2  0
 44 42  1  0
 45 44  1  0
 46 48  1  0
 47 46  1  0
 48 49  1  0
 48 50  2  0
 50 51  1  0
 52  9  2  0
 52 54  1  0
 53 52  1  0
 54 55  2  0
 55 56  1  0
 55 57  1  0
 57 58  1  0
 59 60  1  0
 59 57  2  0
 61 59  1  0
 62 61  1  0
 63 54  1  0
 63 61  2  0
 64 63  1  0
M  END
$$$$
