out_1000462
     RDKit          3D

 55 59  0  0  1  0  0  0  0  0999 V2000
    8.4004    6.4387   26.7235 O   0  0  0  0  0  0  0  0  0  0  0  0
    9.0424    6.5373   24.0939 O   0  0  0  0  0  0  0  0  0  0  0  0
    9.4434    6.9360   24.6867 H   0  0  0  0  0  0  0  0  0  0  0  0
    8.0163    5.7211   21.3194 N   0  0  0  0  0  0  0  0  0  0  0  0
    6.5434    7.3951   21.3708 N   0  0  0  0  0  0  0  0  0  0  0  0
   10.8912    5.5321   21.2961 N   0  0  0  0  0  0  0  0  0  0  0  0
    7.3797    6.1999   25.8213 C   0  0  0  0  0  0  0  0  0  0  0  0
    7.1100    6.4397   22.0604 C   0  0  0  0  0  0  0  0  0  0  0  0
    6.0785    5.9000   26.1532 C   0  0  0  0  0  0  0  0  0  0  0  0
    5.8394    5.8018   27.0468 H   0  0  0  0  0  0  0  0  0  0  0  0
    5.1368    5.7455   25.1761 C   0  0  0  0  0  0  0  0  0  0  0  0
    4.2561    5.5617   25.4127 H   0  0  0  0  0  0  0  0  0  0  0  0
    5.4764    5.8604   23.8438 C   0  0  0  0  0  0  0  0  0  0  0  0
    4.8325    5.7397   23.1832 H   0  0  0  0  0  0  0  0  0  0  0  0
    6.7886    6.1582   23.4955 C   0  0  0  0  0  0  0  0  0  0  0  0
    7.7557    6.2995   24.4843 C   0  0  0  0  0  0  0  0  0  0  0  0
    8.6619    4.4741   21.7705 C   0  0  2  0  0  0  0  0  0  0  0  0
    8.6949    4.5263   22.7479 H   0  0  0  0  0  0  0  0  0  0  0  0
    8.0226    6.2873   20.0619 C   0  0  0  0  0  0  0  0  0  0  0  0
    7.1300    7.3372   20.1203 C   0  0  0  0  0  0  0  0  0  0  0  0
    6.9611    8.1594   19.0147 C   0  0  0  0  0  0  0  0  0  0  0  0
    6.3712    8.8778   19.0434 H   0  0  0  0  0  0  0  0  0  0  0  0
    7.6803    7.8901   17.8741 C   0  0  0  0  0  0  0  0  0  0  0  0
    7.5839    8.4416   17.1317 H   0  0  0  0  0  0  0  0  0  0  0  0
    8.5366    6.8239   17.8157 C   0  0  0  0  0  0  0  0  0  0  0  0
    8.9954    6.6566   17.0246 H   0  0  0  0  0  0  0  0  0  0  0  0
    8.7418    5.9864   18.9002 C   0  0  0  0  0  0  0  0  0  0  0  0
    9.3253    5.2639   18.8587 H   0  0  0  0  0  0  0  0  0  0  0  0
   12.2614    5.4213   20.9291 C   0  0  0  0  0  0  0  0  0  0  0  0
   12.8054    6.1750   20.9153 H   0  0  0  0  0  0  0  0  0  0  0  0
   12.7772    4.1844   20.5925 C   0  0  0  0  0  0  0  0  0  0  0  0
   13.6716    4.1020   20.3527 H   0  0  0  0  0  0  0  0  0  0  0  0
   11.9726    3.0857   20.6135 C   0  0  0  0  0  0  0  0  0  0  0  0
   12.3331    2.2574   20.3938 H   0  0  0  0  0  0  0  0  0  0  0  0
   10.6469    3.1680   20.9478 C   0  0  0  0  0  0  0  0  0  0  0  0
   10.1132    2.4070   20.9343 H   0  0  0  0  0  0  0  0  0  0  0  0
   10.1130    4.3775   21.3054 C   0  0  0  0  0  0  0  0  0  0  0  0
    7.8238    3.3063   21.4550 C   0  0  0  0  0  0  0  0  0  0  0  0
    7.3770    2.4423   22.4486 C   0  0  0  0  0  0  0  0  0  0  0  0
    7.6219    2.5844   23.3342 H   0  0  0  0  0  0  0  0  0  0  0  0
    6.5634    1.3650   22.1165 C   0  0  0  0  0  0  0  0  0  0  0  0
    6.2638    0.7866   22.7813 H   0  0  0  0  0  0  0  0  0  0  0  0
    6.1965    1.1515   20.7935 C   0  0  0  0  0  0  0  0  0  0  0  0
    5.6520    0.4313   20.5718 H   0  0  0  0  0  0  0  0  0  0  0  0
    6.6433    2.0165   19.8008 C   0  0  0  0  0  0  0  0  0  0  0  0
    6.3983    1.8739   18.9152 H   0  0  0  0  0  0  0  0  0  0  0  0
    7.4569    3.0938   20.1323 C   0  0  0  0  0  0  0  0  0  0  0  0
    7.7564    3.6718   19.4681 H   0  0  0  0  0  0  0  0  0  0  0  0
    8.0599    6.6410   28.1189 C   0  0  2  0  0  0  0  0  0  0  0  0
    7.1726    7.0276   28.1846 H   0  0  0  0  0  0  0  0  0  0  0  0
    8.6890    7.2607   28.5207 H   0  0  0  0  0  0  0  0  0  0  0  0
    8.0953    5.3654   28.8459 C   0  0  2  0  0  0  0  0  0  0  0  0
    7.6137    4.7006   28.3474 H   0  0  0  0  0  0  0  0  0  0  0  0
    7.6883    5.4767   29.7075 H   0  0  0  0  0  0  0  0  0  0  0  0
    9.0067    5.0850   28.9552 H   0  0  0  0  0  0  0  0  0  0  0  0
  1 49  1  0
  2 16  1  0
  2  3  1  0
  4 17  1  0
  4  8  1  0
  5  8  2  0
  6 37  2  0
  7  9  2  0
  7  1  1  0
  8 15  1  0
  9 10  1  0
 11 12  1  0
 11  9  1  0
 13 11  2  0
 14 13  1  0
 15 13  1  0
 15 16  2  0
 16  7  1  0
 17 18  1  1
 19 20  2  0
 19  4  1  0
 20  5  1  0
 21 22  1  0
 21 20  1  0
 23 21  2  0
 24 23  1  0
 25 23  1  0
 25 27  2  0
 26 25  1  0
 27 19  1  0
 28 27  1  0
 29  6  1  0
 30 29  1  0
 31 33  1  0
 31 29  2  0
 32 31  1  0
 33 35  2  0
 34 33  1  0
 35 37  1  0
 36 35  1  0
 37 17  1  0
 38 17  1  0
 38 39  2  0
 39 40  1  0
 41 39  1  0
 41 42  1  0
 43 41  2  0
 44 43  1  0
 45 47  2  0
 45 43  1  0
 46 45  1  0
 47 38  1  0
 48 47  1  0
 49 50  1  6
 49 51  1  0
 49 52  1  0
 52 55  1  1
 52 54  1  0
 53 52  1  0
M  END
$$$$
