out_1002527
     RDKit          3D

 51 56  0  0  1  0  0  0  0  0999 V2000
   13.5099   -0.4485   15.0344 Br  0  0  0  0  0  0  0  0  0  0  0  0
    6.4840    4.6449   17.0416 O   0  0  0  0  0  0  0  0  0  0  0  0
   11.7586    5.1002   18.7020 N   0  0  0  0  0  0  0  0  0  0  0  0
   10.9943    4.2153   18.0084 N   0  0  0  0  0  0  0  0  0  0  0  0
    9.8573   10.5454   14.0206 N   0  0  0  0  0  0  0  0  0  0  0  0
    7.5275    2.9622   18.2155 C   0  0  0  0  0  0  0  0  0  0  0  0
    7.5202    1.9032   19.1081 C   0  0  0  0  0  0  0  0  0  0  0  0
    8.3076    1.4500   19.3048 H   0  0  0  0  0  0  0  0  0  0  0  0
    6.3345    1.5270   19.7022 C   0  0  0  0  0  0  0  0  0  0  0  0
    6.3262    0.8194   20.3052 H   0  0  0  0  0  0  0  0  0  0  0  0
    5.1572    2.1955   19.4088 C   0  0  0  0  0  0  0  0  0  0  0  0
    4.3649    1.9214   19.8127 H   0  0  0  0  0  0  0  0  0  0  0  0
    5.1350    3.2665   18.5233 C   0  0  0  0  0  0  0  0  0  0  0  0
    4.3486    3.7271   18.3347 H   0  0  0  0  0  0  0  0  0  0  0  0
    6.3378    3.6139   17.9362 C   0  0  0  0  0  0  0  0  0  0  0  0
    8.6399    3.5979   17.3979 C   0  0  1  0  0  0  0  0  0  0  0  0
    9.1030    2.9019   16.8872 H   0  0  0  0  0  0  0  0  0  0  0  0
    7.7733    4.4732   16.4137 C   0  0  2  0  0  0  0  0  0  0  0  0
    7.6356    3.9512   15.5960 H   0  0  0  0  0  0  0  0  0  0  0  0
    8.3103    5.8078   16.0110 C   0  0  0  0  0  0  0  0  0  0  0  0
    9.3883    5.8781   15.1094 C   0  0  0  0  0  0  0  0  0  0  0  0
    9.8026    5.0934   14.8295 H   0  0  0  0  0  0  0  0  0  0  0  0
    9.8399    7.0808   14.6381 C   0  0  0  0  0  0  0  0  0  0  0  0
   10.5609    7.1138   14.0530 H   0  0  0  0  0  0  0  0  0  0  0  0
    9.2056    8.2612   15.0426 C   0  0  0  0  0  0  0  0  0  0  0  0
    8.1601    8.2205   15.9667 C   0  0  0  0  0  0  0  0  0  0  0  0
    7.7544    9.0059   16.2569 H   0  0  0  0  0  0  0  0  0  0  0  0
    7.7359    6.9914   16.4442 C   0  0  0  0  0  0  0  0  0  0  0  0
    7.0478    6.9598   17.0702 H   0  0  0  0  0  0  0  0  0  0  0  0
    9.5980    9.5271   14.4786 C   0  0  0  0  0  0  0  0  0  0  0  0
    9.6359    4.3622   18.2017 C   0  0  0  0  0  0  0  0  0  0  0  0
    9.5083    5.4069   19.1129 C   0  0  0  0  0  0  0  0  0  0  0  0
   10.8465    5.8301   19.3865 C   0  0  0  0  0  0  0  0  0  0  0  0
   11.0857    6.8732   20.3036 C   0  0  0  0  0  0  0  0  0  0  0  0
   11.9514    7.1626   20.4845 H   0  0  0  0  0  0  0  0  0  0  0  0
   10.0217    7.4418   20.9189 C   0  0  0  0  0  0  0  0  0  0  0  0
   10.1646    8.1292   21.5285 H   0  0  0  0  0  0  0  0  0  0  0  0
    8.6855    7.0153   20.6571 C   0  0  0  0  0  0  0  0  0  0  0  0
    7.9832    7.4239   21.1090 H   0  0  0  0  0  0  0  0  0  0  0  0
    8.4101    6.0250   19.7625 C   0  0  0  0  0  0  0  0  0  0  0  0
    7.5360    5.7645   19.5845 H   0  0  0  0  0  0  0  0  0  0  0  0
   11.6311    3.1315   17.3150 C   0  0  0  0  0  0  0  0  0  0  0  0
   12.5419    3.3855   16.3029 C   0  0  0  0  0  0  0  0  0  0  0  0
   12.7675    4.2591   16.0769 H   0  0  0  0  0  0  0  0  0  0  0  0
   13.1165    2.3089   15.6291 C   0  0  0  0  0  0  0  0  0  0  0  0
   13.7405    2.4571   14.9553 H   0  0  0  0  0  0  0  0  0  0  0  0
   12.7565    1.0343   15.9656 C   0  0  0  0  0  0  0  0  0  0  0  0
   11.8658    0.7651   17.0025 C   0  0  0  0  0  0  0  0  0  0  0  0
   11.6500   -0.1114   17.2272 H   0  0  0  0  0  0  0  0  0  0  0  0
   11.3111    1.8273   17.6896 C   0  0  0  0  0  0  0  0  0  0  0  0
   10.7288    1.6734   18.3979 H   0  0  0  0  0  0  0  0  0  0  0  0
  1 47  1  0
  2 15  1  0
  3 33  2  0
  4 31  1  0
  4  3  1  0
  5 30  3  0
  6  7  1  0
  7  8  1  0
  7  9  2  0
  9 10  1  0
 11  9  1  0
 11 12  1  0
 13 11  2  0
 14 13  1  0
 15  6  2  0
 15 13  1  0
 16 17  1  6
 16 31  1  0
 16  6  1  0
 18 19  1  6
 18  2  1  0
 18 16  1  0
 20 18  1  0
 20 28  1  0
 21 20  2  0
 22 21  1  0
 23 25  2  0
 23 21  1  0
 24 23  1  0
 25 26  1  0
 26 27  1  0
 26 28  2  0
 28 29  1  0
 30 25  1  0
 31 32  2  0
 32 33  1  0
 32 40  1  0
 33 34  1  0
 34 35  1  0
 34 36  2  0
 36 37  1  0
 38 36  1  0
 38 39  1  0
 40 38  2  0
 41 40  1  0
 42 50  1  0
 42  4  1  0
 43 42  2  0
 44 43  1  0
 45 47  2  0
 45 43  1  0
 46 45  1  0
 47 48  1  0
 48 49  1  0
 48 50  2  0
 50 51  1  0
M  END
$$$$
