out_1130242
     RDKit          3D

 52 54  0  0  1  0  0  0  0  0999 V2000
    4.0896   10.0832    7.8642 O   0  0  0  0  0  0  0  0  0  0  0  0
    3.5771   10.6900    7.5900 H   0  0  0  0  0  0  0  0  0  0  0  0
    0.3222   11.4329    0.5240 O   0  0  0  0  0  0  0  0  0  0  0  0
    0.8702   11.9089    0.1016 H   0  0  0  0  0  0  0  0  0  0  0  0
    0.4471    7.3787    6.0087 O   0  0  0  0  0  0  0  0  0  0  0  0
    1.5311    7.6726    5.5277 C   0  0  0  0  0  0  0  0  0  0  0  0
    2.9211    8.1135    3.5352 C   0  0  0  0  0  0  0  0  0  0  0  0
    1.7281    7.7639    4.0615 C   0  0  0  0  0  0  0  0  0  0  0  0
    3.6728    8.9417    5.7711 C   0  0  2  0  0  0  0  0  0  0  0  0
    3.0983    9.7361    5.5785 H   0  0  0  0  0  0  0  0  0  0  0  0
    4.7549    9.4657    6.7369 C   0  0  1  0  0  0  0  0  0  0  0  0
    2.7290    7.9271    6.4018 C   0  0  2  0  0  0  0  0  0  0  0  0
    3.2131    7.0760    6.5495 H   0  0  0  0  0  0  0  0  0  0  0  0
    2.4265    8.2633    7.2818 H   0  0  0  0  0  0  0  0  0  0  0  0
    0.7054   10.0469    0.4178 C   0  0  2  0  0  0  0  0  0  0  0  0
    1.6728    9.9740    0.2209 H   0  0  0  0  0  0  0  0  0  0  0  0
    0.2036    9.6114   -0.3154 H   0  0  0  0  0  0  0  0  0  0  0  0
    0.3893    9.3722    1.7386 C   0  0  2  0  0  0  0  0  0  0  0  0
   -0.5561    9.5571    1.9652 H   0  0  0  0  0  0  0  0  0  0  0  0
    0.9502    9.7859    2.4427 H   0  0  0  0  0  0  0  0  0  0  0  0
    1.9971    7.4435    1.2643 C   0  0  1  0  0  0  0  0  0  0  0  0
    2.1035    6.4620    1.3487 H   0  0  0  0  0  0  0  0  0  0  0  0
    2.0715    7.6765    0.3047 H   0  0  0  0  0  0  0  0  0  0  0  0
    0.6115    7.8439    1.7714 C   0  0  1  0  0  0  0  0  0  0  0  0
    3.1122    8.1355    2.0334 C   0  0  2  0  0  0  0  0  0  0  0  0
    3.9722    7.6946    1.8138 H   0  0  0  0  0  0  0  0  0  0  0  0
    3.1713    9.0767    1.7336 H   0  0  0  0  0  0  0  0  0  0  0  0
    5.0103    7.1705    4.4246 C   0  0  2  0  0  0  0  0  0  0  0  0
    5.1439    6.8359    3.5135 H   0  0  0  0  0  0  0  0  0  0  0  0
    4.5532    6.4892    4.9602 H   0  0  0  0  0  0  0  0  0  0  0  0
    5.8796    7.3751    4.8284 H   0  0  0  0  0  0  0  0  0  0  0  0
    4.1477    8.4570    4.3794 C   0  0  1  0  0  0  0  0  0  0  0  0
    5.5838   10.5336    6.0212 C   0  0  2  0  0  0  0  0  0  0  0  0
    6.3567   10.7760    6.5905 H   0  0  0  0  0  0  0  0  0  0  0  0
    5.0296   11.3448    5.9063 H   0  0  0  0  0  0  0  0  0  0  0  0
    0.5302    7.3801    3.2304 C   0  0  2  0  0  0  0  0  0  0  0  0
   -0.2817    7.7671    3.6436 H   0  0  0  0  0  0  0  0  0  0  0  0
    0.4339    6.3940    3.2462 H   0  0  0  0  0  0  0  0  0  0  0  0
    5.6360    8.3952    7.3762 C   0  0  2  0  0  0  0  0  0  0  0  0
    6.1496    8.7912    8.1120 H   0  0  0  0  0  0  0  0  0  0  0  0
    6.2511    8.0345    6.7045 H   0  0  0  0  0  0  0  0  0  0  0  0
    5.0716    7.6719    7.7236 H   0  0  0  0  0  0  0  0  0  0  0  0
   -0.4707    7.1297    0.9479 C   0  0  2  0  0  0  0  0  0  0  0  0
   -0.4081    7.4114    0.0125 H   0  0  0  0  0  0  0  0  0  0  0  0
   -1.3553    7.3615    1.3006 H   0  0  0  0  0  0  0  0  0  0  0  0
   -0.3389    6.1607    1.0067 H   0  0  0  0  0  0  0  0  0  0  0  0
    6.0984   10.0861    4.6520 C   0  0  1  0  0  0  0  0  0  0  0  0
    6.5648   10.8418    4.2155 H   0  0  0  0  0  0  0  0  0  0  0  0
    6.7523    9.3531    4.7731 H   0  0  0  0  0  0  0  0  0  0  0  0
    4.9630    9.6060    3.7510 C   0  0  1  0  0  0  0  0  0  0  0  0
    5.3416    9.2988    2.8899 H   0  0  0  0  0  0  0  0  0  0  0  0
    4.3573   10.3659    3.5616 H   0  0  0  0  0  0  0  0  0  0  0  0
  2  1  1  0
  4  3  1  0
  6  5  2  0
  6 12  1  0
  7  8  2  0
 32  7  1  6
  8  6  1  0
  9 10  1  6
  9 12  1  0
  9 11  1  0
 11 39  1  0
 11  1  1  1
 12 13  1  1
 12 14  1  0
 15  3  1  0
 15 18  1  0
 15 16  1  6
 17 15  1  0
 18 24  1  0
 18 19  1  1
 18 20  1  0
 21 22  1  6
 21 24  1  0
 21 25  1  0
 23 21  1  0
 24 43  1  0
 24 36  1  1
 25  7  1  0
 25 26  1  1
 27 25  1  0
 28 31  1  1
 28 30  1  0
 29 28  1  0
 32 28  1  0
 32  9  1  0
 33 34  1  1
 33 11  1  0
 35 33  1  0
 36 38  1  6
 36 37  1  0
 36  8  1  0
 39 42  1  1
 39 40  1  0
 41 39  1  0
 43 46  1  6
 43 45  1  0
 44 43  1  0
 47 49  1  1
 47 33  1  0
 48 47  1  0
 50 32  1  0
 50 47  1  0
 50 51  1  6
 52 50  1  0
M  END
$$$$
