out_1257847
     RDKit          3D

 18 18  0  0  0  0  0  0  0  0999 V2000
   -0.5433    6.8000    3.7834 N   0  0  0  0  0  0  0  0  0  0  0  0
    0.5091    5.8924    3.8512 N   0  0  0  0  0  0  0  0  0  0  0  0
    0.1104    6.3483    1.7601 N   0  0  0  0  0  0  0  0  0  0  0  0
    0.2955    6.3329    0.3722 N   0  0  0  0  0  0  0  0  0  0  0  0
    0.5267    7.1445    0.0594 H   0  0  0  0  0  0  0  0  0  0  0  0
   -0.4423    6.0467   -0.0546 H   0  0  0  0  0  0  0  0  0  0  0  0
    1.4461    3.4318    1.8377 O   0  0  0  0  0  0  0  0  0  0  0  0
    1.0517    3.1022    2.4761 H   0  0  0  0  0  0  0  0  0  0  0  0
   -1.1830    9.2722    1.6488 O   0  0  0  0  0  0  0  0  0  0  0  0
   -0.8407    9.6017    2.3172 H   0  0  0  0  0  0  0  0  0  0  0  0
    0.8864    5.6400    2.6226 C   0  0  0  0  0  0  0  0  0  0  0  0
   -0.7659    7.0604    2.5190 C   0  0  0  0  0  0  0  0  0  0  0  0
    1.9592    4.7007    2.2027 C   0  0  2  0  0  0  0  0  0  0  0  0
    2.4367    5.0800    1.4484 H   0  0  0  0  0  0  0  0  0  0  0  0
    2.5897    4.5917    2.9306 H   0  0  0  0  0  0  0  0  0  0  0  0
   -1.7666    8.0253    1.9830 C   0  0  2  0  0  0  0  0  0  0  0  0
   -2.1826    7.6461    1.1931 H   0  0  0  0  0  0  0  0  0  0  0  0
   -2.4604    8.1653    2.6464 H   0  0  0  0  0  0  0  0  0  0  0  0
  1  2  1  0
  3 12  1  0
  3 11  1  0
  4  3  1  0
  5  4  1  0
  6  4  1  0
  7 13  1  0
  7  8  1  0
  9 16  1  0
  9 10  1  0
 11  2  2  0
 12  1  2  0
 13 11  1  0
 13 15  1  1
 14 13  1  0
 16 12  1  0
 16 18  1  1
 17 16  1  0
M  END
$$$$
