out_1784791
     RDKit          3D

 59 61  0  0  0  0  0  0  0  0999 V2000
    5.1600    3.7130    5.4605 P   0  0  1  0  0  0  0  0  0  0  0  0
    5.7509    4.2054    6.8817 O   0  0  0  0  0  0  0  0  0  0  0  0
    5.6310    2.3579    5.1249 O   0  0  0  0  0  0  0  0  0  0  0  0
    3.7207    4.0545    5.5370 O   0  0  0  0  0  0  0  0  0  0  0  0
    5.7078    4.8054    4.4038 O   0  0  0  0  0  0  0  0  0  0  0  0
    2.8220    3.4032    5.7682 H   0  0  0  0  0  0  0  0  0  0  0  0
    6.9438    3.6872    7.3850 C   0  0  0  0  0  0  0  0  0  0  0  0
    6.8931    2.8256    8.5043 C   0  0  0  0  0  0  0  0  0  0  0  0
    8.1130    2.3453    8.9246 C   0  0  0  0  0  0  0  0  0  0  0  0
    8.1196    1.7638    9.6494 H   0  0  0  0  0  0  0  0  0  0  0  0
    9.3389    2.6662    8.3456 C   0  0  0  0  0  0  0  0  0  0  0  0
    9.3184    3.5744    7.3099 C   0  0  0  0  0  0  0  0  0  0  0  0
   10.1227    3.8408    6.9240 H   0  0  0  0  0  0  0  0  0  0  0  0
    8.1369    4.1033    6.8296 C   0  0  0  0  0  0  0  0  0  0  0  0
    8.1559    5.1885    5.7575 C   0  0  1  0  0  0  0  0  0  0  0  0
    7.4079    5.7835    5.9183 H   0  0  0  0  0  0  0  0  0  0  0  0
    8.9665    5.7096    5.8733 H   0  0  0  0  0  0  0  0  0  0  0  0
    8.0928    4.7431    4.3272 C   0  0  0  0  0  0  0  0  0  0  0  0
    9.2504    4.5312    3.5917 C   0  0  0  0  0  0  0  0  0  0  0  0
   10.0723    4.6089    4.0163 H   0  0  0  0  0  0  0  0  0  0  0  0
    9.2237    4.2064    2.2515 C   0  0  0  0  0  0  0  0  0  0  0  0
    7.9959    4.1578    1.6190 C   0  0  0  0  0  0  0  0  0  0  0  0
    7.9723    3.9866    0.7055 H   0  0  0  0  0  0  0  0  0  0  0  0
    6.7819    4.3581    2.2987 C   0  0  0  0  0  0  0  0  0  0  0  0
    6.8801    4.5992    3.6775 C   0  0  0  0  0  0  0  0  0  0  0  0
    5.6006    2.4445    9.2077 C   0  0  2  0  0  0  0  0  0  0  0  0
    4.6650    1.6530    8.2963 C   0  0  2  0  0  0  0  0  0  0  0  0
    4.3704    2.2150    7.5758 H   0  0  0  0  0  0  0  0  0  0  0  0
    3.9057    1.3535    8.7981 H   0  0  0  0  0  0  0  0  0  0  0  0
    5.1333    0.8946    7.9382 H   0  0  0  0  0  0  0  0  0  0  0  0
    4.8881    3.7163    9.7330 C   0  0  2  0  0  0  0  0  0  0  0  0
    5.5159    4.2550   10.2219 H   0  0  0  0  0  0  0  0  0  0  0  0
    4.1643    3.4635   10.3098 H   0  0  0  0  0  0  0  0  0  0  0  0
    4.5460    4.2200    8.9911 H   0  0  0  0  0  0  0  0  0  0  0  0
    5.8491    1.5791   10.4514 C   0  0  2  0  0  0  0  0  0  0  0  0
    6.3032    0.7740   10.1962 H   0  0  0  0  0  0  0  0  0  0  0  0
    5.0103    1.3574   10.8609 H   0  0  0  0  0  0  0  0  0  0  0  0
    6.3917    2.0672   11.0775 H   0  0  0  0  0  0  0  0  0  0  0  0
   10.6434    2.0692    8.8581 C   0  0  2  0  0  0  0  0  0  0  0  0
   10.4624    1.5052    9.6129 H   0  0  0  0  0  0  0  0  0  0  0  0
   11.2386    2.7751    9.1197 H   0  0  0  0  0  0  0  0  0  0  0  0
   11.0511    1.5480    8.1612 H   0  0  0  0  0  0  0  0  0  0  0  0
   10.4953    3.9263    1.4839 C   0  0  2  0  0  0  0  0  0  0  0  0
   11.2265    4.3911    1.8977 H   0  0  0  0  0  0  0  0  0  0  0  0
   10.3964    4.2258    0.5768 H   0  0  0  0  0  0  0  0  0  0  0  0
   10.6724    2.9812    1.4903 H   0  0  0  0  0  0  0  0  0  0  0  0
    5.4555    4.3231    1.5267 C   0  0  2  0  0  0  0  0  0  0  0  0
    5.6711    4.0994    0.0064 C   0  0  2  0  0  0  0  0  0  0  0  0
    6.2480    4.7840   -0.3388 H   0  0  0  0  0  0  0  0  0  0  0  0
    4.8261    4.1344   -0.4460 H   0  0  0  0  0  0  0  0  0  0  0  0
    6.0754    3.2399   -0.1372 H   0  0  0  0  0  0  0  0  0  0  0  0
    4.7067    5.6630    1.6811 C   0  0  2  0  0  0  0  0  0  0  0  0
    4.5459    5.8341    2.6118 H   0  0  0  0  0  0  0  0  0  0  0  0
    3.8692    5.6163    1.2137 H   0  0  0  0  0  0  0  0  0  0  0  0
    5.2385    6.3708    1.3123 H   0  0  0  0  0  0  0  0  0  0  0  0
    4.5370    3.1796    2.0156 C   0  0  2  0  0  0  0  0  0  0  0  0
    5.0230    2.3511    2.0028 H   0  0  0  0  0  0  0  0  0  0  0  0
    3.7747    3.1135    1.4367 H   0  0  0  0  0  0  0  0  0  0  0  0
    4.2438    3.3663    2.9120 H   0  0  0  0  0  0  0  0  0  0  0  0
  1  4  1  1
  1  2  1  0
  2  7  1  0
  3  1  2  0
  4  6  1  0
  5  1  1  0
  7  8  2  0
  8  9  1  0
 26  8  1  6
  9 10  1  0
 11 39  1  0
 11  9  2  0
 12 11  1  0
 13 12  1  0
 14 12  2  0
 14  7  1  0
 15 17  1  6
 15 16  1  0
 15 14  1  0
 18 15  1  0
 19 20  1  0
 19 18  2  0
 21 19  1  0
 22 21  2  0
 22 24  1  0
 23 22  1  0
 24 25  2  0
 25 18  1  0
 25  5  1  0
 26 31  1  0
 26 35  1  0
 27 29  1  1
 27 26  1  0
 28 27  1  0
 30 27  1  0
 31 32  1  1
 31 33  1  0
 34 31  1  0
 35 37  1  1
 35 38  1  0
 36 35  1  0
 39 41  1  1
 39 40  1  0
 42 39  1  0
 43 46  1  6
 43 44  1  0
 43 21  1  0
 45 43  1  0
 47 52  1  0
 47 56  1  0
 47 24  1  1
 48 47  1  0
 48 49  1  6
 50 48  1  0
 51 48  1  0
 52 53  1  1
 54 52  1  0
 55 52  1  0
 56 59  1  1
 57 56  1  0
 58 56  1  0
M  END
$$$$
