out_1784760
     RDKit          3D

 47 50  0  0  1  0  0  0  0  0999 V2000
    4.7382    1.1341    6.7688 O   0  0  0  0  0  0  0  0  0  0  0  0
    3.9866    2.8737    7.9117 O   0  0  0  0  0  0  0  0  0  0  0  0
    4.6009    3.2473    7.5192 H   0  0  0  0  0  0  0  0  0  0  0  0
    0.5318    0.4672    8.5993 O   0  0  0  0  0  0  0  0  0  0  0  0
    0.1641    2.6593   10.6514 O   0  0  0  0  0  0  0  0  0  0  0  0
   -0.4935    2.9561   11.0411 H   0  0  0  0  0  0  0  0  0  0  0  0
    2.8176    0.8171    8.2044 C   0  0  2  0  0  0  0  0  0  0  0  0
    2.4282    1.4316    9.5437 C   0  0  2  0  0  0  0  0  0  0  0  0
    2.2102    2.3723    9.4558 H   0  0  0  0  0  0  0  0  0  0  0  0
    3.1321    1.3241   10.2026 H   0  0  0  0  0  0  0  0  0  0  0  0
    1.1987    0.6006    9.8935 C   0  0  2  0  0  0  0  0  0  0  0  0
    1.6243   -0.7759   10.3683 C   0  0  2  0  0  0  0  0  0  0  0  0
    0.8388   -1.2912   10.6099 H   0  0  0  0  0  0  0  0  0  0  0  0
    2.1809   -0.6879   11.1569 H   0  0  0  0  0  0  0  0  0  0  0  0
    2.4010   -1.5140    9.2765 C   0  0  2  0  0  0  0  0  0  0  0  0
    1.7696   -1.9177    8.6612 H   0  0  0  0  0  0  0  0  0  0  0  0
    2.9141   -2.2291    9.6835 H   0  0  0  0  0  0  0  0  0  0  0  0
    3.3579   -0.6041    8.4843 C   0  0  1  0  0  0  0  0  0  0  0  0
    3.5582   -1.0308    7.6350 H   0  0  0  0  0  0  0  0  0  0  0  0
    4.1894   -0.5266    8.9767 H   0  0  0  0  0  0  0  0  0  0  0  0
    3.9312    1.6048    7.5411 C   0  0  0  0  0  0  0  0  0  0  0  0
    1.4186    0.7919    7.4688 C   0  0  2  0  0  0  0  0  0  0  0  0
    0.9482    2.1383    6.8691 C   0  0  1  0  0  0  0  0  0  0  0  0
    1.1191    2.8416    7.5311 H   0  0  0  0  0  0  0  0  0  0  0  0
    1.7094    2.5015    5.5769 C   0  0  1  0  0  0  0  0  0  0  0  0
    1.2695    3.2627    5.1672 H   0  0  0  0  0  0  0  0  0  0  0  0
    2.6060    2.7794    5.8181 H   0  0  0  0  0  0  0  0  0  0  0  0
    1.8137    1.3911    4.5378 C   0  0  1  0  0  0  0  0  0  0  0  0
    0.9880    1.3534    4.0291 H   0  0  0  0  0  0  0  0  0  0  0  0
    2.5323    1.6013    3.9213 H   0  0  0  0  0  0  0  0  0  0  0  0
    2.0766    0.0321    5.1572 C   0  0  2  0  0  0  0  0  0  0  0  0
    3.0085   -0.0168    5.4187 H   0  0  0  0  0  0  0  0  0  0  0  0
    1.9226   -0.6523    4.4883 H   0  0  0  0  0  0  0  0  0  0  0  0
    1.1992   -0.2668    6.3811 C   0  0  2  0  0  0  0  0  0  0  0  0
    1.4858   -1.1299    6.7485 H   0  0  0  0  0  0  0  0  0  0  0  0
   -0.2938   -0.3778    6.0441 C   0  0  1  0  0  0  0  0  0  0  0  0
   -0.3906   -0.9672    5.2790 H   0  0  0  0  0  0  0  0  0  0  0  0
   -0.7448   -0.7975    6.7924 H   0  0  0  0  0  0  0  0  0  0  0  0
   -1.0046    0.9253    5.7318 C   0  0  2  0  0  0  0  0  0  0  0  0
   -1.9605    0.7947    5.8260 H   0  0  0  0  0  0  0  0  0  0  0  0
   -0.8284    1.1683    4.8078 H   0  0  0  0  0  0  0  0  0  0  0  0
   -0.5670    2.0657    6.6375 C   0  0  1  0  0  0  0  0  0  0  0  0
   -1.0087    1.9680    7.4952 H   0  0  0  0  0  0  0  0  0  0  0  0
   -0.8627    2.9030    6.2493 H   0  0  0  0  0  0  0  0  0  0  0  0
    0.2541    1.2556   10.8726 C   0  0  2  0  0  0  0  0  0  0  0  0
   -0.6260    0.8590   10.7816 H   0  0  0  0  0  0  0  0  0  0  0  0
    0.5656    1.0929   11.7759 H   0  0  0  0  0  0  0  0  0  0  0  0
  1 21  2  0
  3  2  1  0
 11  4  1  6
  5 45  1  0
  5  6  1  0
  7 21  1  6
  7 18  1  0
  7  8  1  0
  8 11  1  0
  8 10  1  1
  9  8  1  0
 11 12  1  0
 11 45  1  0
 12 13  1  1
 12 14  1  0
 15 17  1  1
 15 12  1  0
 16 15  1  0
 18 20  1  1
 18 15  1  0
 19 18  1  0
 21  2  1  0
 22  7  1  0
 22  4  1  1
 23 22  1  0
 23 24  1  1
 25 27  1  1
 25 23  1  0
 26 25  1  0
 28 31  1  0
 28 25  1  0
 28 29  1  6
 30 28  1  0
 31 32  1  1
 31 34  1  0
 33 31  1  0
 34 35  1  1
 34 22  1  0
 36 34  1  0
 36 38  1  1
 37 36  1  0
 39 40  1  6
 39 36  1  0
 39 42  1  0
 41 39  1  0
 42 23  1  0
 42 43  1  1
 44 42  1  0
 45 47  1  1
 46 45  1  0
M  END
$$$$
