out_1000440
     RDKit          3D

 50 52  0  0  0  0  0  0  0  0999 V2000
    0.6183   35.0483    5.0596 O   0  0  0  0  0  0  0  0  0  0  0  0
    0.6224   35.6177    2.9089 O   0  0  0  0  0  0  0  0  0  0  0  0
   12.0854   25.9364   -0.4696 O   0  0  0  0  0  0  0  0  0  0  0  0
   11.9145   24.7654    1.4251 O   0  0  0  0  0  0  0  0  0  0  0  0
    1.0911   34.9723    3.8268 C   0  0  0  0  0  0  0  0  0  0  0  0
    2.2075   34.0063    3.6533 C   0  0  0  0  0  0  0  0  0  0  0  0
    2.7583   33.8556    2.3872 C   0  0  0  0  0  0  0  0  0  0  0  0
    3.7710   32.9404    2.1744 C   0  0  0  0  0  0  0  0  0  0  0  0
    4.2564   32.1456    3.1944 C   0  0  0  0  0  0  0  0  0  0  0  0
    3.7055   32.3092    4.4568 C   0  0  0  0  0  0  0  0  0  0  0  0
    2.6877   33.2256    4.6858 C   0  0  0  0  0  0  0  0  0  0  0  0
    5.3133   31.1272    2.9071 C   0  0  0  0  0  0  0  0  0  0  0  0
    4.9555   29.9070    2.3057 C   0  0  0  0  0  0  0  0  0  0  0  0
    5.9444   28.9637    2.0078 C   0  0  0  0  0  0  0  0  0  0  0  0
    7.2921   29.2672    2.2624 C   0  0  0  0  0  0  0  0  0  0  0  0
    7.6513   30.4752    2.8774 C   0  0  0  0  0  0  0  0  0  0  0  0
    6.6565   31.4026    3.2084 C   0  0  0  0  0  0  0  0  0  0  0  0
    8.3564   28.3039    1.8384 C   0  0  0  0  0  0  0  0  0  0  0  0
    9.0047   28.4736    0.6126 C   0  0  0  0  0  0  0  0  0  0  0  0
   10.0109   27.6102    0.2120 C   0  0  0  0  0  0  0  0  0  0  0  0
   10.3951   26.5599    1.0420 C   0  0  0  0  0  0  0  0  0  0  0  0
    9.7331   26.3676    2.2510 C   0  0  0  0  0  0  0  0  0  0  0  0
    8.7194   27.2267    2.6404 C   0  0  0  0  0  0  0  0  0  0  0  0
   11.5265   25.6598    0.6995 C   0  0  0  0  0  0  0  0  0  0  0  0
    9.0898   30.7784    3.2025 C   0  0  1  0  0  0  0  0  0  0  0  0
    7.0612   32.7018    3.8597 C   0  0  2  0  0  0  0  0  0  0  0  0
    5.5681   27.6126    1.4531 C   0  0  2  0  0  0  0  0  0  0  0  0
    3.5189   29.6047    1.9616 C   0  0  1  0  0  0  0  0  0  0  0  0
   -0.0815   35.5870    5.0225 H   0  0  0  0  0  0  0  0  0  0  0  0
   12.7125   25.4062   -0.5849 H   0  0  0  0  0  0  0  0  0  0  0  0
    2.4733   34.4323    1.7044 H   0  0  0  0  0  0  0  0  0  0  0  0
    4.1685   32.8519    1.2909 H   0  0  0  0  0  0  0  0  0  0  0  0
    4.0263   31.8014    5.1637 H   0  0  0  0  0  0  0  0  0  0  0  0
    2.3106   33.3726    5.5469 H   0  0  0  0  0  0  0  0  0  0  0  0
    8.7454   29.2163    0.0706 H   0  0  0  0  0  0  0  0  0  0  0  0
   10.4359   27.7370   -0.6273 H   0  0  0  0  0  0  0  0  0  0  0  0
    9.9641   25.6236    2.8148 H   0  0  0  0  0  0  0  0  0  0  0  0
    8.2873   27.0785    3.4885 H   0  0  0  0  0  0  0  0  0  0  0  0
    9.4130   31.5135    2.6928 H   0  0  0  0  0  0  0  0  0  0  0  0
    9.1894   31.0203    4.1552 H   0  0  0  0  0  0  0  0  0  0  0  0
    9.6426   30.0341    3.0478 H   0  0  0  0  0  0  0  0  0  0  0  0
    7.6301   33.2409    3.2777 H   0  0  0  0  0  0  0  0  0  0  0  0
    7.5801   32.5456    4.6695 H   0  0  0  0  0  0  0  0  0  0  0  0
    6.3134   33.2348    4.0543 H   0  0  0  0  0  0  0  0  0  0  0  0
    6.3170   27.2224    0.9581 H   0  0  0  0  0  0  0  0  0  0  0  0
    4.7832   27.6635    0.8774 H   0  0  0  0  0  0  0  0  0  0  0  0
    5.3470   26.9468    2.1683 H   0  0  0  0  0  0  0  0  0  0  0  0
    3.2297   28.7692    2.3902 H   0  0  0  0  0  0  0  0  0  0  0  0
    2.9482   30.3312    2.2490 H   0  0  0  0  0  0  0  0  0  0  0  0
    3.4174   29.5747    1.0186 H   0  0  0  0  0  0  0  0  0  0  0  0
  2  5  2  0
  3 24  1  0
  5  1  1  0
  6  5  1  0
  6 11  2  0
  7  6  1  0
  8  7  2  0
  8  9  1  0
  9 10  2  0
 10 11  1  0
 10 33  1  0
 11 34  1  0
 12  9  1  0
 12 17  1  0
 13 12  2  0
 14 15  2  0
 14 13  1  0
 15 16  1  0
 16 25  1  0
 16 17  2  0
 17 26  1  0
 18 15  1  0
 18 23  1  0
 19 18  2  0
 20 19  1  0
 20 21  2  0
 21 22  1  0
 22 23  2  0
 22 37  1  0
 23 38  1  0
 24 21  1  0
 24  4  2  0
 25 40  1  1
 26 44  1  1
 26 43  1  0
 27 14  1  0
 27 47  1  1
 28 49  1  1
 28 13  1  0
 28 48  1  0
 29  1  1  0
 30  3  1  0
 31  7  1  0
 32  8  1  0
 35 19  1  0
 36 20  1  0
 39 25  1  0
 41 25  1  0
 42 26  1  0
 45 27  1  0
 46 27  1  0
 50 28  1  0
M  END
$$$$
