out_1378475
     RDKit          3D

 20 20  0  0  0  0  0  0  0  0999 V2000
   -1.3892    5.3109    3.8935 C   0  0  0  0  0  0  0  0  0  0  0  0
   -1.4492    4.9659    2.5366 C   0  0  0  0  0  0  0  0  0  0  0  0
   -0.8253    4.3455    2.1785 H   0  0  0  0  0  0  0  0  0  0  0  0
   -2.4098    5.5227    1.7184 C   0  0  0  0  0  0  0  0  0  0  0  0
   -3.3560    6.4130    2.2731 C   0  0  0  0  0  0  0  0  0  0  0  0
   -3.2883    6.7407    3.6178 C   0  0  0  0  0  0  0  0  0  0  0  0
   -3.9297    7.3362    3.9871 H   0  0  0  0  0  0  0  0  0  0  0  0
   -2.2979    6.2122    4.4330 C   0  0  0  0  0  0  0  0  0  0  0  0
   -2.2421    6.4632    5.3476 H   0  0  0  0  0  0  0  0  0  0  0  0
   -0.3498    4.6794    4.7271 C   0  0  0  0  0  0  0  0  0  0  0  0
   -1.5550    4.4435   -0.2223 C   0  0  2  0  0  0  0  0  0  0  0  0
   -0.6592    4.7983   -0.0436 H   0  0  0  0  0  0  0  0  0  0  0  0
   -1.7047    4.4068   -1.1902 H   0  0  0  0  0  0  0  0  0  0  0  0
   -1.6304    3.5418    0.1542 H   0  0  0  0  0  0  0  0  0  0  0  0
    0.3128    3.7173    4.3283 O   0  0  0  0  0  0  0  0  0  0  0  0
   -0.1884    5.2030    5.9184 O   0  0  0  0  0  0  0  0  0  0  0  0
    0.5246    4.8663    6.3116 H   0  0  0  0  0  0  0  0  0  0  0  0
   -2.5342    5.2951    0.3796 O   0  0  0  0  0  0  0  0  0  0  0  0
   -4.2912    6.9203    1.4331 O   0  0  0  0  0  0  0  0  0  0  0  0
   -4.8665    7.4289    1.8510 H   0  0  0  0  0  0  0  0  0  0  0  0
  1  8  2  0
  1 10  1  0
  2  1  1  0
  3  2  1  0
  4  5  1  0
  4  2  2  0
  5  6  2  0
  6  7  1  0
  6  8  1  0
  8  9  1  0
 10 16  1  0
 11 12  1  6
 11 14  1  0
 11 18  1  0
 13 11  1  0
 15 10  2  0
 16 17  1  0
 18  4  1  0
 19 20  1  0
 19  5  1  0
M  END
$$$$
