out_1378470
     RDKit          3D

 26 27  0  0  0  0  0  0  0  0999 V2000
    6.9928    0.5655    2.7835 C   0  0  0  0  0  0  0  0  0  0  0  0
    7.8552   -0.2934    2.1188 C   0  0  0  0  0  0  0  0  0  0  0  0
    9.1803   -0.3852    2.5087 C   0  0  0  0  0  0  0  0  0  0  0  0
    9.6275    0.4098    3.5593 C   0  0  0  0  0  0  0  0  0  0  0  0
    8.7751    1.2860    4.2000 C   0  0  0  0  0  0  0  0  0  0  0  0
    5.2249    1.3532    1.2169 C   0  0  0  0  0  0  0  0  0  0  0  0
    3.5055    0.4884    2.0874 C   0  0  0  0  0  0  0  0  0  0  0  0
    4.5375    0.1030    2.9021 C   0  0  0  0  0  0  0  0  0  0  0  0
    7.4167    1.3786    3.8390 C   0  0  0  0  0  0  0  0  0  0  0  0
    6.1561    2.0547    0.3114 C   0  0  1  0  0  0  0  0  0  0  0  0
    5.6377    0.6662    2.3281 N   0  0  0  0  0  0  0  0  0  0  0  0
    3.9250    1.2614    1.0548 N   0  0  0  0  0  0  0  0  0  0  0  0
    6.5544    2.1943    4.5164 N   0  0  0  0  0  0  0  0  0  0  0  0
    2.1297    0.1394    2.2160 N   0  0  0  0  0  0  0  0  0  0  0  0
    1.3306    0.6055    1.4270 O   0  0  0  0  0  0  0  0  0  0  0  0
    1.8279   -0.6252    3.1288 O   0  0  0  0  0  0  0  0  0  0  0  0
    7.4968   -0.8735    1.2912 H   0  0  0  0  0  0  0  0  0  0  0  0
    9.8515   -1.0466    1.9937 H   0  0  0  0  0  0  0  0  0  0  0  0
   10.6500    0.3512    3.8700 H   0  0  0  0  0  0  0  0  0  0  0  0
    9.1399    1.9502    4.9576 H   0  0  0  0  0  0  0  0  0  0  0  0
    4.6004   -0.4953    3.7545 H   0  0  0  0  0  0  0  0  0  0  0  0
    5.6867    2.3814    4.1140 H   0  0  0  0  0  0  0  0  0  0  0  0
    6.9696    2.9117    5.0182 H   0  0  0  0  0  0  0  0  0  0  0  0
    6.7741    2.7396    0.8089 H   0  0  0  0  0  0  0  0  0  0  0  0
    6.7932    1.3598   -0.1651 H   0  0  0  0  0  0  0  0  0  0  0  0
    5.5732    2.5635   -0.4218 H   0  0  0  0  0  0  0  0  0  0  0  0
  1  9  2  0
  2  3  2  0
  2  1  1  0
  3  4  1  0
  4 19  1  0
  4  5  2  0
  5 20  1  0
  6 11  1  0
  7 14  1  0
  7  8  2  0
  8 21  1  0
  9  5  1  0
  9 13  1  0
 10 24  1  1
 10  6  1  0
 11  1  1  0
 11  8  1  0
 12  6  2  0
 12  7  1  0
 13 23  1  0
 14 16  1  0
 15 14  2  0
 17  2  1  0
 18  3  1  0
 22 13  1  0
 25 10  1  0
 26 10  1  0
M  CHG  2  14   1  16  -1
M  END
$$$$
