out_1013268
     RDKit          3D

 62 65  0  0  1  0  0  0  0  0999 V2000
    8.0107    5.6193    7.7496 O   0  0  0  0  0  0  0  0  0  0  0  0
    8.1188    7.7068    8.6773 O   0  0  0  0  0  0  0  0  0  0  0  0
    5.1472    4.8498    8.0386 O   0  0  0  0  0  0  0  0  0  0  0  0
    5.3882    3.8264    6.0549 O   0  0  0  0  0  0  0  0  0  0  0  0
    4.3956    7.6186   -0.1013 O   0  0  0  0  0  0  0  0  0  0  0  0
    6.1301    6.2805    0.3497 O   0  0  0  0  0  0  0  0  0  0  0  0
    6.4446    7.0819    7.2403 N   0  0  0  0  0  0  0  0  0  0  0  0
    5.7808    8.3291    7.0915 C   0  0  0  0  0  0  0  0  0  0  0  0
    5.9564    9.4937    7.8306 C   0  0  0  0  0  0  0  0  0  0  0  0
    6.6068    9.5499    8.5201 H   0  0  0  0  0  0  0  0  0  0  0  0
    5.1287   10.5811    7.5137 C   0  0  0  0  0  0  0  0  0  0  0  0
    5.2317   11.3941    7.9941 H   0  0  0  0  0  0  0  0  0  0  0  0
    4.1670   10.5043    6.5198 C   0  0  0  0  0  0  0  0  0  0  0  0
    3.6104   11.2516    6.3385 H   0  0  0  0  0  0  0  0  0  0  0  0
    4.0192    9.3268    5.7830 C   0  0  0  0  0  0  0  0  0  0  0  0
    3.3639    9.2671    5.0987 H   0  0  0  0  0  0  0  0  0  0  0  0
    4.8378    8.2486    6.0626 C   0  0  0  0  0  0  0  0  0  0  0  0
    4.8439    6.8757    5.4411 C   0  0  2  0  0  0  0  0  0  0  0  0
    3.9589    6.4120    5.4729 H   0  0  0  0  0  0  0  0  0  0  0  0
    5.9777    6.1337    6.2254 C   0  0  1  0  0  0  0  0  0  0  0  0
    6.8166    6.0766    4.9317 C   0  0  1  0  0  0  0  0  0  0  0  0
    7.6059    6.6752    4.9451 H   0  0  0  0  0  0  0  0  0  0  0  0
    7.0757    5.1589    4.6674 H   0  0  0  0  0  0  0  0  0  0  0  0
    5.6314    6.6400    4.1217 C   0  0  1  0  0  0  0  0  0  0  0  0
    4.9530    5.7678    3.0446 C   0  0  2  0  0  0  0  0  0  0  0  0
    4.1098    5.3471    3.3480 H   0  0  0  0  0  0  0  0  0  0  0  0
    5.5573    5.0955    2.6408 H   0  0  0  0  0  0  0  0  0  0  0  0
    4.7380    7.0200    2.1590 C   0  0  1  0  0  0  0  0  0  0  0  0
    3.8089    7.3798    2.2445 H   0  0  0  0  0  0  0  0  0  0  0  0
    5.7407    7.7817    3.0788 C   0  0  2  0  0  0  0  0  0  0  0  0
    6.6446    7.8792    2.6885 H   0  0  0  0  0  0  0  0  0  0  0  0
    5.3993    8.6524    3.4047 H   0  0  0  0  0  0  0  0  0  0  0  0
    7.5924    6.8837    7.9677 C   0  0  0  0  0  0  0  0  0  0  0  0
    9.2938    5.1495    8.3011 C   0  0  2  0  0  0  0  0  0  0  0  0
    9.3030    3.6952    7.8719 C   0  0  2  0  0  0  0  0  0  0  0  0
    8.4958    3.2515    8.2057 H   0  0  0  0  0  0  0  0  0  0  0  0
   10.0958    3.2516    8.2393 H   0  0  0  0  0  0  0  0  0  0  0  0
    9.3237    3.6439    6.8936 H   0  0  0  0  0  0  0  0  0  0  0  0
    9.2985    5.2475    9.8128 C   0  0  2  0  0  0  0  0  0  0  0  0
    9.2852    6.1912   10.0785 H   0  0  0  0  0  0  0  0  0  0  0  0
   10.1055    4.8198   10.1662 H   0  0  0  0  0  0  0  0  0  0  0  0
    8.5053    4.7968   10.1717 H   0  0  0  0  0  0  0  0  0  0  0  0
   10.4171    5.9270    7.6554 C   0  0  2  0  0  0  0  0  0  0  0  0
   11.2748    5.5051    7.8754 H   0  0  0  0  0  0  0  0  0  0  0  0
   10.4116    6.8477    7.9903 H   0  0  0  0  0  0  0  0  0  0  0  0
   10.2956    5.9313    6.6834 H   0  0  0  0  0  0  0  0  0  0  0  0
    5.5109    4.8009    6.7691 C   0  0  0  0  0  0  0  0  0  0  0  0
    4.6248    3.6237    8.6344 C   0  0  2  0  0  0  0  0  0  0  0  0
    4.9314    2.8371    8.1161 H   0  0  0  0  0  0  0  0  0  0  0  0
    3.6356    3.6362    8.6279 H   0  0  0  0  0  0  0  0  0  0  0  0
    5.1256    3.5390   10.0333 C   0  0  2  0  0  0  0  0  0  0  0  0
    6.1062    3.5196   10.0291 H   0  0  0  0  0  0  0  0  0  0  0  0
    4.7850    2.7228   10.4543 H   0  0  0  0  0  0  0  0  0  0  0  0
    4.8177    4.3206   10.5384 H   0  0  0  0  0  0  0  0  0  0  0  0
    5.1596    6.9044    0.7267 C   0  0  0  0  0  0  0  0  0  0  0  0
    4.8379    7.6752   -1.5024 C   0  0  2  0  0  0  0  0  0  0  0  0
    5.8225    7.7778   -1.5307 H   0  0  0  0  0  0  0  0  0  0  0  0
    4.4363    8.4665   -1.9410 H   0  0  0  0  0  0  0  0  0  0  0  0
    4.4495    6.4475   -2.2509 C   0  0  2  0  0  0  0  0  0  0  0  0
    4.7084    6.5425   -3.1915 H   0  0  0  0  0  0  0  0  0  0  0  0
    3.4799    6.3208   -2.1902 H   0  0  0  0  0  0  0  0  0  0  0  0
    4.9054    5.6708   -1.8640 H   0  0  0  0  0  0  0  0  0  0  0  0
  1 33  1  0
 34  1  1  6
  3 48  1  0
  4 47  2  0
  5 55  1  0
  6 55  2  0
  7 33  1  0
  8  7  1  0
  8  9  2  0
  9 10  1  0
 11  9  1  0
 11 12  1  0
 13 11  2  0
 14 13  1  0
 15 17  2  0
 15 13  1  0
 16 15  1  0
 17  8  1  0
 18 19  1  6
 18 17  1  0
 18 20  1  0
 20 47  1  1
 20  7  1  0
 21 22  1  1
 21 20  1  0
 23 21  1  0
 24 25  1  0
 24 21  1  0
 24 18  1  1
 25 26  1  1
 27 25  1  0
 28 29  1  6
 28 25  1  0
 28 30  1  0
 30 32  1  1
 30 24  1  0
 31 30  1  0
 33  2  2  0
 34 39  1  0
 35 36  1  1
 35 37  1  0
 35 34  1  0
 38 35  1  0
 39 40  1  6
 39 41  1  0
 39 42  1  0
 43 44  1  6
 43 45  1  0
 43 34  1  0
 46 43  1  0
 47  3  1  0
 48 51  1  0
 48 49  1  6
 50 48  1  0
 51 53  1  1
 51 54  1  0
 52 51  1  0
 55 28  1  0
 56  5  1  0
 56 57  1  1
 58 56  1  0
 59 61  1  6
 59 62  1  0
 59 56  1  0
 60 59  1  0
M  END
$$$$
