out_1003255
     RDKit          3D

 30 31  0  0  1  0  0  0  0  0999 V2000
    6.5818    4.0067    0.2320 C   0  0  0  0  0  0  0  0  0  0  0  0
    5.1801    4.0540    0.3509 C   0  0  0  0  0  0  0  0  0  0  0  0
    4.7774    4.1615    1.2047 H   0  0  0  0  0  0  0  0  0  0  0  0
    4.3734    3.9419   -0.8002 C   0  0  0  0  0  0  0  0  0  0  0  0
    3.4275    3.8669   -0.7183 H   0  0  0  0  0  0  0  0  0  0  0  0
    4.9689    3.9369   -2.0827 C   0  0  0  0  0  0  0  0  0  0  0  0
    4.4311    3.8789   -2.8621 H   0  0  0  0  0  0  0  0  0  0  0  0
    6.3808    4.0217   -2.2028 C   0  0  0  0  0  0  0  0  0  0  0  0
    6.7791    4.0960   -3.0612 H   0  0  0  0  0  0  0  0  0  0  0  0
    7.1875    3.9967   -1.0517 C   0  0  0  0  0  0  0  0  0  0  0  0
    8.1337    3.9721   -1.1266 H   0  0  0  0  0  0  0  0  0  0  0  0
    7.5819    4.0441    1.3946 C   0  0  2  0  0  0  0  0  0  0  0  0
    8.4463    3.5909    1.1994 H   0  0  0  0  0  0  0  0  0  0  0  0
    6.8514    3.4411    2.4531 O   0  0  0  0  0  0  0  0  0  0  0  0
    7.3326    3.4193    3.1438 H   0  0  0  0  0  0  0  0  0  0  0  0
    7.7406    5.5989    1.8175 C   0  0  2  0  0  0  0  0  0  0  0  0
    8.3510    5.6812    2.5991 H   0  0  0  0  0  0  0  0  0  0  0  0
    6.4546    6.1620    2.1285 O   0  0  0  0  0  0  0  0  0  0  0  0
    5.9437    5.5549    2.4001 H   0  0  0  0  0  0  0  0  0  0  0  0
    8.3423    6.2194    0.6470 C   0  0  0  0  0  0  0  0  0  0  0  0
    9.7531    6.2518    0.5601 C   0  0  0  0  0  0  0  0  0  0  0  0
   10.2863    5.9313    1.2781 H   0  0  0  0  0  0  0  0  0  0  0  0
   10.3543    6.7576   -0.5944 C   0  0  0  0  0  0  0  0  0  0  0  0
   11.3038    6.8403   -0.6455 H   0  0  0  0  0  0  0  0  0  0  0  0
    9.5457    7.1413   -1.6918 C   0  0  0  0  0  0  0  0  0  0  0  0
    9.9405    7.2808   -2.5446 H   0  0  0  0  0  0  0  0  0  0  0  0
    8.1622    7.3182   -1.5089 C   0  0  0  0  0  0  0  0  0  0  0  0
    7.6314    7.6747   -2.2139 H   0  0  0  0  0  0  0  0  0  0  0  0
    7.5787    6.9594   -0.2743 C   0  0  0  0  0  0  0  0  0  0  0  0
    6.6811    7.2086   -0.0777 H   0  0  0  0  0  0  0  0  0  0  0  0
  1  2  2  0
  1 12  1  0
  2  3  1  0
  4  5  1  0
  4  2  1  0
  6  4  2  0
  7  6  1  0
  8  6  1  0
  8 10  2  0
  9  8  1  0
 10  1  1  0
 11 10  1  0
 12 13  1  6
 12 16  1  0
 12 14  1  0
 14 15  1  0
 16 18  1  0
 16 17  1  1
 18 19  1  0
 20 16  1  0
 21 20  2  0
 21 22  1  0
 23 21  1  0
 24 23  1  0
 25 27  1  0
 25 23  2  0
 26 25  1  0
 27 29  2  0
 28 27  1  0
 29 30  1  0
 29 20  1  0
M  END
$$$$
