out_1111619
     RDKit          3D

 25 27  0  0  0  0  0  0  0  0999 V2000
   11.2429    3.0618    5.6546 O   0  0  0  0  0  0  0  0  0  0  0  0
   10.9544    7.0280    5.1850 O   0  0  0  0  0  0  0  0  0  0  0  0
   11.1714    3.0568    2.0591 N   0  0  0  0  0  0  0  0  0  0  0  0
   11.0853    5.2284    6.5604 N   0  0  0  0  0  0  0  0  0  0  0  0
   11.0162    4.3567    1.8315 C   0  0  0  0  0  0  0  0  0  0  0  0
   10.9414    4.6371    0.9489 H   0  0  0  0  0  0  0  0  0  0  0  0
   10.9591    5.3193    2.8203 C   0  0  0  0  0  0  0  0  0  0  0  0
   10.8640    6.2194    2.6072 H   0  0  0  0  0  0  0  0  0  0  0  0
   11.0480    4.9040    4.1446 C   0  0  0  0  0  0  0  0  0  0  0  0
   11.1910    3.5601    4.3795 C   0  0  0  0  0  0  0  0  0  0  0  0
   11.2621    2.6493    3.3254 C   0  0  0  0  0  0  0  0  0  0  0  0
   11.3750    1.7442    3.5078 H   0  0  0  0  0  0  0  0  0  0  0  0
   11.0311    5.8141    5.3006 C   0  0  0  0  0  0  0  0  0  0  0  0
   11.1757    3.9421    6.6816 C   0  0  0  0  0  0  0  0  0  0  0  0
   11.1771    3.2627    7.9817 C   0  0  0  0  0  0  0  0  0  0  0  0
   11.3192    4.0329    9.1363 C   0  0  0  0  0  0  0  0  0  0  0  0
   11.4358    4.9537    9.0792 H   0  0  0  0  0  0  0  0  0  0  0  0
   11.2837    3.4047   10.3660 C   0  0  0  0  0  0  0  0  0  0  0  0
   11.3915    3.9073   11.1406 H   0  0  0  0  0  0  0  0  0  0  0  0
   11.0922    2.0417   10.4611 C   0  0  0  0  0  0  0  0  0  0  0  0
   11.0504    1.6349   11.2972 H   0  0  0  0  0  0  0  0  0  0  0  0
   10.9617    1.2778    9.3077 C   0  0  0  0  0  0  0  0  0  0  0  0
   10.8463    0.3571    9.3694 H   0  0  0  0  0  0  0  0  0  0  0  0
   11.0034    1.8905    8.0686 C   0  0  0  0  0  0  0  0  0  0  0  0
   10.9147    1.3822    7.2942 H   0  0  0  0  0  0  0  0  0  0  0  0
  1 14  1  0
  2 13  2  0
  3 11  2  0
  4 14  2  0
  5  3  1  0
  5  7  2  0
  6  5  1  0
  7  9  1  0
  8  7  1  0
  9 10  2  0
  9 13  1  0
 10  1  1  0
 11 12  1  0
 11 10  1  0
 13  4  1  0
 14 15  1  0
 15 24  1  0
 15 16  2  0
 16 18  1  0
 17 16  1  0
 18 20  2  0
 18 19  1  0
 20 21  1  0
 22 23  1  0
 22 20  1  0
 24 22  2  0
 25 24  1  0
M  END
$$$$
