out_1002451
     RDKit          3D

 54 57  0  0  1  0  0  0  0  0999 V2000
    4.2625    6.7177    7.2771 C   0  0  2  0  0  0  0  0  0  0  0  0
    3.4046    7.4581    8.3261 C   0  0  0  0  0  0  0  0  0  0  0  0
    2.1721    7.8513    7.6633 C   0  0  0  0  0  0  0  0  0  0  0  0
    1.0496    8.5359    8.1320 C   0  0  0  0  0  0  0  0  0  0  0  0
    1.0316    8.8869    9.0146 H   0  0  0  0  0  0  0  0  0  0  0  0
   -0.0291    8.6934    7.2950 C   0  0  0  0  0  0  0  0  0  0  0  0
   -0.7993    9.1642    7.5913 H   0  0  0  0  0  0  0  0  0  0  0  0
    0.0141    8.1555    6.0016 C   0  0  0  0  0  0  0  0  0  0  0  0
   -0.7395    8.2677    5.4341 H   0  0  0  0  0  0  0  0  0  0  0  0
    1.1084    7.4701    5.5227 C   0  0  0  0  0  0  0  0  0  0  0  0
    1.1091    7.1006    4.6475 H   0  0  0  0  0  0  0  0  0  0  0  0
    2.2179    7.3341    6.3616 C   0  0  0  0  0  0  0  0  0  0  0  0
    4.6034    5.2854    7.7597 C   0  0  1  0  0  0  0  0  0  0  0  0
    4.3134    5.1862    8.7010 H   0  0  0  0  0  0  0  0  0  0  0  0
    4.0930    4.6336    7.2166 H   0  0  0  0  0  0  0  0  0  0  0  0
    6.0850    4.9548    7.6629 C   0  0  1  0  0  0  0  0  0  0  0  0
    6.5746    5.4031    8.3972 H   0  0  0  0  0  0  0  0  0  0  0  0
    6.2148    3.9778    7.7568 H   0  0  0  0  0  0  0  0  0  0  0  0
    6.4843    6.8252    6.0567 C   0  0  2  0  0  0  0  0  0  0  0  0
    7.8345    7.5352    6.0385 C   0  0  2  0  0  0  0  0  0  0  0  0
    8.4532    7.0608    5.4284 H   0  0  0  0  0  0  0  0  0  0  0  0
    8.2287    7.5269    6.9465 H   0  0  0  0  0  0  0  0  0  0  0  0
    7.6523    8.9760    5.5692 C   0  0  1  0  0  0  0  0  0  0  0  0
    8.5254    9.4422    5.5897 H   0  0  0  0  0  0  0  0  0  0  0  0
    7.3248    8.9793    4.6349 H   0  0  0  0  0  0  0  0  0  0  0  0
    6.6590    9.7187    6.4582 C   0  0  2  0  0  0  0  0  0  0  0  0
    6.4845   10.6145    6.0746 H   0  0  0  0  0  0  0  0  0  0  0  0
    7.0556    9.8439    7.3565 H   0  0  0  0  0  0  0  0  0  0  0  0
    5.3379    8.9623    6.5920 C   0  0  2  0  0  0  0  0  0  0  0  0
    4.8742    8.9561    5.7174 H   0  0  0  0  0  0  0  0  0  0  0  0
    4.7568    9.4311    7.2422 H   0  0  0  0  0  0  0  0  0  0  0  0
    5.5585    7.5211    7.0580 C   0  0  1  0  0  0  0  0  0  0  0  0
    7.1374    4.5921    5.4322 C   0  0  0  0  0  0  0  0  0  0  0  0
    8.0059    2.3441    5.0335 C   0  0  1  0  0  0  0  0  0  0  0  0
    7.8748    1.0995    5.8806 C   0  0  2  0  0  0  0  0  0  0  0  0
    8.2633    1.2638    6.7650 H   0  0  0  0  0  0  0  0  0  0  0  0
    8.3478    0.3585    5.4479 H   0  0  0  0  0  0  0  0  0  0  0  0
    6.9268    0.8694    5.9780 H   0  0  0  0  0  0  0  0  0  0  0  0
    9.4453    2.7819    4.9092 C   0  0  2  0  0  0  0  0  0  0  0  0
    9.4955    3.5845    4.3491 H   0  0  0  0  0  0  0  0  0  0  0  0
    9.9709    2.0638    4.4987 H   0  0  0  0  0  0  0  0  0  0  0  0
    9.8041    2.9816    5.7991 H   0  0  0  0  0  0  0  0  0  0  0  0
    7.3785    2.1413    3.6794 C   0  0  2  0  0  0  0  0  0  0  0  0
    6.4309    1.9165    3.7888 H   0  0  0  0  0  0  0  0  0  0  0  0
    7.8360    1.4104    3.2137 H   0  0  0  0  0  0  0  0  0  0  0  0
    7.4604    2.9649    3.1548 H   0  0  0  0  0  0  0  0  0  0  0  0
    3.4126    6.7369    6.0925 N   0  0  0  0  0  0  0  0  0  0  0  0
    6.6144    5.3982    6.3784 N   0  0  0  0  0  0  0  0  0  0  0  0
    3.7567    7.6377    9.4753 O   0  0  0  0  0  0  0  0  0  0  0  0
    7.4795    4.9923    4.3306 O   0  0  0  0  0  0  0  0  0  0  0  0
    7.2515    3.3208    5.8452 O   0  0  0  0  0  0  0  0  0  0  0  0
    6.0797    6.8938    5.1677 H   0  0  0  0  0  0  0  0  0  0  0  0
    6.0100    7.5366    7.9294 H   0  0  0  0  0  0  0  0  0  0  0  0
    3.4952    6.1703    5.4222 H   0  0  0  0  0  0  0  0  0  0  0  0
  1 13  1  0
  1  2  1  0
  2 49  2  0
  3  4  2  0
  3  2  1  0
  4  5  1  0
  6  7  1  0
  6  4  1  0
  8  6  2  0
  9  8  1  0
 10  8  1  0
 10 12  2  0
 11 10  1  0
 12  3  1  0
 13 14  1  1
 15 13  1  0
 16 18  1  1
 16 13  1  0
 16 17  1  0
 19 52  1  6
 19 48  1  0
 19 32  1  0
 20 19  1  0
 20 22  1  1
 21 20  1  0
 23 24  1  6
 23 20  1  0
 23 26  1  0
 25 23  1  0
 26 29  1  0
 26 28  1  1
 27 26  1  0
 29 32  1  0
 29 31  1  1
 30 29  1  0
 32  1  1  0
 32 53  1  1
 33 51  1  0
 33 48  1  0
 34 51  1  1
 34 35  1  0
 35 38  1  1
 35 36  1  0
 37 35  1  0
 39 34  1  0
 39 42  1  1
 40 39  1  0
 41 39  1  0
 43 44  1  1
 43 34  1  0
 45 43  1  0
 46 43  1  0
 47 12  1  0
  1 47  1  6
 48 16  1  0
 50 33  2  0
 54 47  1  0
M  END
$$$$
