out_1003512
     RDKit          3D

 30 31  0  0  1  0  0  0  0  0999 V2000
   -2.0349    7.3852    0.8714 C   0  0  0  0  0  0  0  0  0  0  0  0
   -0.6287    7.4729    0.8166 C   0  0  0  0  0  0  0  0  0  0  0  0
   -0.1327    7.7548    1.5762 H   0  0  0  0  0  0  0  0  0  0  0  0
    0.0335    7.1295   -0.3906 C   0  0  0  0  0  0  0  0  0  0  0  0
    0.9718    7.2294   -0.4918 H   0  0  0  0  0  0  0  0  0  0  0  0
   -0.8164    6.6133   -1.4870 C   0  0  0  0  0  0  0  0  0  0  0  0
   -0.4017    6.3436   -2.2977 H   0  0  0  0  0  0  0  0  0  0  0  0
   -2.1855    6.5030   -1.3842 C   0  0  0  0  0  0  0  0  0  0  0  0
   -2.7139    6.1976   -2.1094 H   0  0  0  0  0  0  0  0  0  0  0  0
   -2.7585    6.8714   -0.1313 C   0  0  0  0  0  0  0  0  0  0  0  0
   -3.6916    6.7474   -0.0049 H   0  0  0  0  0  0  0  0  0  0  0  0
   -2.6792    7.9816    2.1255 C   0  0  2  0  0  0  0  0  0  0  0  0
   -2.0676    7.8783    2.9106 H   0  0  0  0  0  0  0  0  0  0  0  0
   -3.9320    7.4027    2.4053 O   0  0  0  0  0  0  0  0  0  0  0  0
   -3.9263    6.5959    2.1702 H   0  0  0  0  0  0  0  0  0  0  0  0
   -3.0184    9.4802    1.9062 C   0  0  1  0  0  0  0  0  0  0  0  0
   -3.5146    9.8047    2.7110 H   0  0  0  0  0  0  0  0  0  0  0  0
   -1.7250   10.0941    1.9039 O   0  0  0  0  0  0  0  0  0  0  0  0
   -1.8083   10.9209    1.7778 H   0  0  0  0  0  0  0  0  0  0  0  0
   -3.8267    9.7558    0.7538 C   0  0  0  0  0  0  0  0  0  0  0  0
   -5.2328    9.7157    1.0507 C   0  0  0  0  0  0  0  0  0  0  0  0
   -5.5143    9.5707    1.9501 H   0  0  0  0  0  0  0  0  0  0  0  0
   -6.1979    9.8886    0.0457 C   0  0  0  0  0  0  0  0  0  0  0  0
   -7.1305    9.9211    0.2042 H   0  0  0  0  0  0  0  0  0  0  0  0
   -5.5918   10.0139   -1.3134 C   0  0  0  0  0  0  0  0  0  0  0  0
   -6.1948   10.1168   -2.0401 H   0  0  0  0  0  0  0  0  0  0  0  0
   -4.2358    9.9939   -1.6332 C   0  0  0  0  0  0  0  0  0  0  0  0
   -3.9173   10.0487   -2.5235 H   0  0  0  0  0  0  0  0  0  0  0  0
   -3.3467    9.8811   -0.4911 C   0  0  0  0  0  0  0  0  0  0  0  0
   -2.4028    9.9006   -0.6309 H   0  0  0  0  0  0  0  0  0  0  0  0
  1 12  1  0
  2  1  2  0
  2  3  1  0
  4  2  1  0
  5  4  1  0
  6  8  1  0
  6  4  2  0
  7  6  1  0
  8 10  2  0
  9  8  1  0
 10 11  1  0
 10  1  1  0
 12 14  1  0
 12 13  1  1
 15 14  1  0
 16 12  1  0
 16 17  1  1
 18 16  1  0
 19 18  1  0
 20 21  2  0
 20 16  1  0
 21 22  1  0
 23 24  1  0
 23 21  1  0
 25 23  2  0
 26 25  1  0
 27 25  1  0
 27 29  2  0
 28 27  1  0
 29 20  1  0
 30 29  1  0
M  END
$$$$
