out_1317848
     RDKit          3D

 16 16  0  0  0  0  0  0  0  0999 V2000
    0.6179    6.3615    2.4011 I   0  0  0  0  0  0  0  0  0  0  0  0
    1.2561    4.9475    5.2331 O   0  0  0  0  0  0  0  0  0  0  0  0
    3.4813    5.0393    5.5131 N   0  0  0  0  0  0  0  0  0  0  0  0
    3.4001    5.3232    6.3207 H   0  0  0  0  0  0  0  0  0  0  0  0
    4.2634    4.9191    5.1765 H   0  0  0  0  0  0  0  0  0  0  0  0
    3.1355    3.1974    0.8731 C   0  0  0  0  0  0  0  0  0  0  0  0
    3.2898    2.8310    0.0319 H   0  0  0  0  0  0  0  0  0  0  0  0
    3.8535    2.7471    1.9611 C   0  0  0  0  0  0  0  0  0  0  0  0
    4.4998    2.0881    1.8529 H   0  0  0  0  0  0  0  0  0  0  0  0
    3.6095    3.2800    3.2154 C   0  0  0  0  0  0  0  0  0  0  0  0
    4.0993    2.9741    3.9448 H   0  0  0  0  0  0  0  0  0  0  0  0
    2.6418    4.2673    3.4043 C   0  0  0  0  0  0  0  0  0  0  0  0
    2.4051    4.7886    4.7898 C   0  0  0  0  0  0  0  0  0  0  0  0
    2.1853    4.1922    1.0281 C   0  0  0  0  0  0  0  0  0  0  0  0
    1.7097    4.5001    0.2907 H   0  0  0  0  0  0  0  0  0  0  0  0
    1.9427    4.7299    2.2854 C   0  0  0  0  0  0  0  0  0  0  0  0
  3  4  1  0
  5  3  1  0
  6 14  2  0
  6  8  1  0
  7  6  1  0
  8 10  2  0
  9  8  1  0
 10 12  1  0
 10 11  1  0
 12 13  1  0
 13  2  2  0
 13  3  1  0
 14 16  1  0
 15 14  1  0
 16  1  1  0
 16 12  2  0
M  END
$$$$
