out_113024
     RDKit          3D

 47 50  0  0  0  0  0  0  0  0999 V2000
   12.0559    7.0985    1.3298 O   0  0  0  0  0  0  0  0  0  0  0  0
   14.0772    5.0468    2.0809 O   0  0  0  0  0  0  0  0  0  0  0  0
   10.6641    5.6015    2.4135 N   0  0  0  0  0  0  0  0  0  0  0  0
   10.0386    3.6756    3.7799 N   0  0  0  0  0  0  0  0  0  0  0  0
   12.2195    4.1067    3.0633 N   0  0  0  0  0  0  0  0  0  0  0  0
    9.4249    6.3096    2.2000 C   0  0  0  0  0  0  0  0  0  0  0  0
    8.9637    6.4210    0.9027 C   0  0  0  0  0  0  0  0  0  0  0  0
    9.4573    6.0557    0.1786 H   0  0  0  0  0  0  0  0  0  0  0  0
    7.7642    7.0772    0.6816 C   0  0  0  0  0  0  0  0  0  0  0  0
    7.4316    7.1735   -0.2020 H   0  0  0  0  0  0  0  0  0  0  0  0
    7.0516    7.5926    1.7465 C   0  0  0  0  0  0  0  0  0  0  0  0
    6.2202    8.0252    1.5914 H   0  0  0  0  0  0  0  0  0  0  0  0
    7.5367    7.4845    3.0315 C   0  0  0  0  0  0  0  0  0  0  0  0
    7.0413    7.8419    3.7588 H   0  0  0  0  0  0  0  0  0  0  0  0
    8.7464    6.8535    3.2612 C   0  0  0  0  0  0  0  0  0  0  0  0
    9.1022    6.7978    4.1407 H   0  0  0  0  0  0  0  0  0  0  0  0
    8.6285    3.8468    3.7687 C   0  0  0  0  0  0  0  0  0  0  0  0
    7.8924    3.6848    2.6014 C   0  0  0  0  0  0  0  0  0  0  0  0
    8.3283    3.4744    1.7829 H   0  0  0  0  0  0  0  0  0  0  0  0
    6.5192    3.8327    2.6431 C   0  0  0  0  0  0  0  0  0  0  0  0
    6.0146    3.7409    1.8429 H   0  0  0  0  0  0  0  0  0  0  0  0
    5.8698    4.1100    3.8279 C   0  0  0  0  0  0  0  0  0  0  0  0
    4.9269    4.2200    3.8409 H   0  0  0  0  0  0  0  0  0  0  0  0
    6.5952    4.2277    4.9943 C   0  0  0  0  0  0  0  0  0  0  0  0
    6.1536    4.4064    5.8154 H   0  0  0  0  0  0  0  0  0  0  0  0
    7.9728    4.0836    4.9605 C   0  0  0  0  0  0  0  0  0  0  0  0
    8.4725    4.1484    5.7672 H   0  0  0  0  0  0  0  0  0  0  0  0
   10.8457    4.3930    3.1353 C   0  0  0  0  0  0  0  0  0  0  0  0
   11.8647    6.0706    1.9283 C   0  0  0  0  0  0  0  0  0  0  0  0
   12.9017    5.0292    2.3408 C   0  0  0  0  0  0  0  0  0  0  0  0
   12.8836    2.8979    3.6004 C   0  0  1  0  0  0  0  0  0  0  0  0
   13.8286    2.9273    3.2753 H   0  0  0  0  0  0  0  0  0  0  0  0
   12.9501    2.9283    5.1077 C   0  0  2  0  0  0  0  0  0  0  0  0
   12.0323    2.9114    5.4792 H   0  0  0  0  0  0  0  0  0  0  0  0
   13.3864    3.7664    5.4023 H   0  0  0  0  0  0  0  0  0  0  0  0
   13.7391    1.7273    5.6408 C   0  0  2  0  0  0  0  0  0  0  0  0
   13.7006    1.7187    6.6300 H   0  0  0  0  0  0  0  0  0  0  0  0
   14.6885    1.8079    5.3710 H   0  0  0  0  0  0  0  0  0  0  0  0
   13.1605    0.4172    5.0934 C   0  0  1  0  0  0  0  0  0  0  0  0
   13.7212   -0.3404    5.3958 H   0  0  0  0  0  0  0  0  0  0  0  0
   12.2487    0.2856    5.4570 H   0  0  0  0  0  0  0  0  0  0  0  0
   13.1007    0.4235    3.5892 C   0  0  2  0  0  0  0  0  0  0  0  0
   12.6899   -0.4206    3.2740 H   0  0  0  0  0  0  0  0  0  0  0  0
   14.0192    0.4701    3.2244 H   0  0  0  0  0  0  0  0  0  0  0  0
   12.2883    1.6054    3.0693 C   0  0  2  0  0  0  0  0  0  0  0  0
   12.3011    1.6117    2.0801 H   0  0  0  0  0  0  0  0  0  0  0  0
   11.3473    1.5229    3.3665 H   0  0  0  0  0  0  0  0  0  0  0  0
  1 29  2  0
  2 30  2  0
  3 28  1  0
  5 28  1  0
  5 31  1  0
  6  3  1  0
  6 15  1  0
  7  6  2  0
  8  7  1  0
  9  7  1  0
  9 11  2  0
 10  9  1  0
 11 13  1  0
 12 11  1  0
 13 15  2  0
 13 14  1  0
 15 16  1  0
 17  4  1  0
 17 26  2  0
 18 20  2  0
 18 17  1  0
 19 18  1  0
 20 22  1  0
 21 20  1  0
 22 23  1  0
 22 24  2  0
 24 25  1  0
 26 24  1  0
 26 27  1  0
 28  4  2  0
 29 30  1  0
 29  3  1  0
 30  5  1  0
 31 33  1  0
 31 32  1  6
 33 35  1  6
 33 34  1  0
 33 36  1  0
 36 37  1  1
 38 36  1  0
 39 40  1  6
 39 41  1  0
 39 36  1  0
 42 39  1  0
 42 43  1  6
 44 42  1  0
 45 47  1  6
 45 42  1  0
 45 31  1  0
 46 45  1  0
M  END
$$$$
