out_1807848
     RDKit          3D

 31 34  0  0  0  0  0  0  0  0999 V2000
    1.5330    2.0211    8.7739 N   0  0  0  0  0  0  0  0  0  0  0  0
    1.3392    1.1238   11.6098 N   0  0  0  0  0  0  0  0  0  0  0  0
    1.5234    2.7507    7.6840 C   0  0  0  0  0  0  0  0  0  0  0  0
    0.8091    2.6580    7.0643 H   0  0  0  0  0  0  0  0  0  0  0  0
    2.5540    3.6664    7.4161 C   0  0  0  0  0  0  0  0  0  0  0  0
    2.4977    4.2563    6.6743 H   0  0  0  0  0  0  0  0  0  0  0  0
    3.6083    3.6909    8.2271 C   0  0  0  0  0  0  0  0  0  0  0  0
    4.3399    4.2563    8.0139 H   0  0  0  0  0  0  0  0  0  0  0  0
    3.6712    2.9142    9.3735 C   0  0  0  0  0  0  0  0  0  0  0  0
    4.8753    2.7655   10.1882 C   0  0  0  0  0  0  0  0  0  0  0  0
    5.6436    3.2881    9.9877 H   0  0  0  0  0  0  0  0  0  0  0  0
    4.9131    1.8997   11.2198 C   0  0  0  0  0  0  0  0  0  0  0  0
    5.7388    1.7285   11.6554 H   0  0  0  0  0  0  0  0  0  0  0  0
    3.7275    1.2343   11.6699 C   0  0  0  0  0  0  0  0  0  0  0  0
    3.7274    0.4867   12.8492 C   0  0  0  0  0  0  0  0  0  0  0  0
    4.5431    0.2931   13.2957 H   0  0  0  0  0  0  0  0  0  0  0  0
    2.5142    0.0302   13.3595 C   0  0  0  0  0  0  0  0  0  0  0  0
    2.4995   -0.5472   14.1140 H   0  0  0  0  0  0  0  0  0  0  0  0
    1.3508    0.4169   12.7690 C   0  0  0  0  0  0  0  0  0  0  0  0
    0.5244    0.1885   13.1790 H   0  0  0  0  0  0  0  0  0  0  0  0
    2.5084    1.4597   10.9828 C   0  0  0  0  0  0  0  0  0  0  0  0
    2.5323    2.1407    9.7325 C   0  0  0  0  0  0  0  0  0  0  0  0
    0.5571    0.8895    8.9051 C   0  0  2  0  0  0  0  0  0  0  0  0
    1.0400    0.0678    9.1748 H   0  0  0  0  0  0  0  0  0  0  0  0
    0.1318    0.7200    8.0266 H   0  0  0  0  0  0  0  0  0  0  0  0
   -0.5256    1.2102    9.9421 C   0  0  1  0  0  0  0  0  0  0  0  0
   -1.1660    1.8587    9.5576 H   0  0  0  0  0  0  0  0  0  0  0  0
   -1.0237    0.3832   10.1609 H   0  0  0  0  0  0  0  0  0  0  0  0
    0.0580    1.7708   11.1779 C   0  0  1  0  0  0  0  0  0  0  0  0
   -0.6045    1.6825   11.9087 H   0  0  0  0  0  0  0  0  0  0  0  0
    0.2222    2.7374   11.0393 H   0  0  0  0  0  0  0  0  0  0  0  0
  1 23  1  0
  1 22  1  0
  2 19  1  0
  3  1  1  0
  4  3  1  0
  5  3  2  0
  5  7  1  0
  6  5  1  0
  7  9  2  0
  8  7  1  0
  9 22  1  0
  9 10  1  0
 10 12  2  0
 11 10  1  0
 12 13  1  0
 12 14  1  0
 14 15  2  0
 15 16  1  0
 15 17  1  0
 17 18  1  0
 19 20  1  0
 19 17  2  0
 21  2  1  0
 21 14  1  0
 22 21  2  0
 23 24  1  1
 23 26  1  0
 25 23  1  0
 26 28  1  1
 26 29  1  0
 27 26  1  0
 29  2  1  0
 29 30  1  1
 31 29  1  0
M  END
$$$$
