out_1003571
     RDKit          3D

 29 29  0  0  1  0  0  0  0  0999 V2000
   -4.2374   18.0441   -1.3132 C   0  0  0  0  0  0  0  0  0  0  0  0
   -4.6787   17.8419   -0.0685 C   0  0  0  0  0  0  0  0  0  0  0  0
   -5.6016   17.6666    0.0607 H   0  0  0  0  0  0  0  0  0  0  0  0
   -3.7532   17.8789    1.1762 C   0  0  1  0  0  0  0  0  0  0  0  0
   -4.2168   18.3424    1.9187 H   0  0  0  0  0  0  0  0  0  0  0  0
   -3.5586   16.9525    1.4708 H   0  0  0  0  0  0  0  0  0  0  0  0
   -2.4450   18.5965    0.8793 C   0  0  1  0  0  0  0  0  0  0  0  0
   -1.8498   18.0663   -0.3883 C   0  0  2  0  0  0  0  0  0  0  0  0
   -1.6887   17.0935   -0.2984 H   0  0  0  0  0  0  0  0  0  0  0  0
   -0.9835   18.5076   -0.5615 H   0  0  0  0  0  0  0  0  0  0  0  0
   -2.8069   18.3154   -1.6101 C   0  0  2  0  0  0  0  0  0  0  0  0
   -2.7184   19.2573   -1.9061 H   0  0  0  0  0  0  0  0  0  0  0  0
   -2.5271   17.7386   -2.3677 H   0  0  0  0  0  0  0  0  0  0  0  0
   -5.2806   17.9800   -2.4323 C   0  0  2  0  0  0  0  0  0  0  0  0
   -5.2347   18.7962   -2.9699 H   0  0  0  0  0  0  0  0  0  0  0  0
   -6.1758   17.9012   -2.0349 H   0  0  0  0  0  0  0  0  0  0  0  0
   -5.1061   17.2012   -2.9976 H   0  0  0  0  0  0  0  0  0  0  0  0
   -2.6369   20.1178    0.8336 C   0  0  1  0  0  0  0  0  0  0  0  0
   -3.4344   20.3067    0.2637 H   0  0  0  0  0  0  0  0  0  0  0  0
   -2.9305   20.5937    2.2039 C   0  0  2  0  0  0  0  0  0  0  0  0
   -2.8588   21.5705    2.2323 H   0  0  0  0  0  0  0  0  0  0  0  0
   -2.2948   20.1982    2.8322 H   0  0  0  0  0  0  0  0  0  0  0  0
   -3.8432   20.3274    2.4489 H   0  0  0  0  0  0  0  0  0  0  0  0
   -1.4582   20.8649    0.2284 C   0  0  2  0  0  0  0  0  0  0  0  0
   -1.4138   20.6870   -0.7361 H   0  0  0  0  0  0  0  0  0  0  0  0
   -0.6233   20.5603    0.6495 H   0  0  0  0  0  0  0  0  0  0  0  0
   -1.5637   21.8263    0.3777 H   0  0  0  0  0  0  0  0  0  0  0  0
   -1.5039   18.3055    1.9984 O   0  0  0  0  0  0  0  0  0  0  0  0
   -1.6305   17.5202    2.2687 H   0  0  0  0  0  0  0  0  0  0  0  0
  1  2  2  0
  2  3  1  0
  2  4  1  0
  4  6  1  1
  4  5  1  0
  7  4  1  0
  7 28  1  1
  8  9  1  1
  8  7  1  0
 10  8  1  0
 11  1  1  0
 11  8  1  0
 11 12  1  6
 13 11  1  0
 14 16  1  1
 14  1  1  0
 15 14  1  0
 17 14  1  0
 18  7  1  0
 18 20  1  0
 18 19  1  6
 20 21  1  6
 20 23  1  0
 20 22  1  0
 24 27  1  6
 24 26  1  0
 24 18  1  0
 25 24  1  0
 28 29  1  0
M  END
$$$$
