out_1130222
     RDKit          3D

 39 43  0  0  1  0  0  0  0  0999 V2000
    5.0354    3.7043    1.2721 O   0  0  0  0  0  0  0  0  0  0  0  0
    5.7417    3.4717    3.3615 O   0  0  0  0  0  0  0  0  0  0  0  0
    3.3881    7.5243    5.4395 O   0  0  0  0  0  0  0  0  0  0  0  0
    3.3216    2.5777    6.0364 O   0  0  0  0  0  0  0  0  0  0  0  0
    2.9843    2.9166    3.8449 O   0  0  0  0  0  0  0  0  0  0  0  0
    7.0115    7.0877    1.1313 C   0  0  0  0  0  0  0  0  0  0  0  0
    6.2227    7.5365    0.8504 H   0  0  0  0  0  0  0  0  0  0  0  0
    8.1350    7.0452    0.3106 C   0  0  0  0  0  0  0  0  0  0  0  0
    8.1136    7.4666   -0.5404 H   0  0  0  0  0  0  0  0  0  0  0  0
    9.2872    6.3909    0.7275 C   0  0  0  0  0  0  0  0  0  0  0  0
   10.0486    6.3759    0.1595 H   0  0  0  0  0  0  0  0  0  0  0  0
    9.3420    5.7587    1.9622 C   0  0  0  0  0  0  0  0  0  0  0  0
   10.1301    5.3061    2.2385 H   0  0  0  0  0  0  0  0  0  0  0  0
    8.2208    5.7991    2.7897 C   0  0  0  0  0  0  0  0  0  0  0  0
    7.0673    6.4604    2.3693 C   0  0  0  0  0  0  0  0  0  0  0  0
    5.9478    6.3120    3.3602 C   0  0  2  0  0  0  0  0  0  0  0  0
    6.5628    5.4459    4.5152 C   0  0  2  0  0  0  0  0  0  0  0  0
    6.5132    5.9588    5.3722 H   0  0  0  0  0  0  0  0  0  0  0  0
    8.0496    5.1954    4.1577 C   0  0  2  0  0  0  0  0  0  0  0  0
    8.6477    5.6344    4.8131 H   0  0  0  0  0  0  0  0  0  0  0  0
    8.2489    4.2258    4.1416 H   0  0  0  0  0  0  0  0  0  0  0  0
    5.7415    4.1712    4.6477 C   0  0  1  0  0  0  0  0  0  0  0  0
    6.1394    3.5839    5.3525 H   0  0  0  0  0  0  0  0  0  0  0  0
    5.1352    4.1724    2.3759 C   0  0  0  0  0  0  0  0  0  0  0  0
    4.7167    5.5481    2.7880 C   0  0  1  0  0  0  0  0  0  0  0  0
    4.3146    6.0444    2.0186 H   0  0  0  0  0  0  0  0  0  0  0  0
    5.2696    7.5739    3.8945 C   0  0  1  0  0  0  0  0  0  0  0  0
    5.8497    8.0504    4.5399 H   0  0  0  0  0  0  0  0  0  0  0  0
    5.0230    8.1902    3.1600 H   0  0  0  0  0  0  0  0  0  0  0  0
    4.0377    7.0000    4.5745 C   0  0  0  0  0  0  0  0  0  0  0  0
    3.7804    5.5817    4.0161 C   0  0  2  0  0  0  0  0  0  0  0  0
    2.8225    5.4424    3.7649 H   0  0  0  0  0  0  0  0  0  0  0  0
    4.2808    4.5204    5.0201 C   0  0  1  0  0  0  0  0  0  0  0  0
    4.2735    4.9212    5.9362 H   0  0  0  0  0  0  0  0  0  0  0  0
    3.4647    3.2454    5.0462 C   0  0  0  0  0  0  0  0  0  0  0  0
    2.4429    1.5774    3.7421 C   0  0  2  0  0  0  0  0  0  0  0  0
    2.0500    1.4512    2.8532 H   0  0  0  0  0  0  0  0  0  0  0  0
    1.7520    1.4511    4.4256 H   0  0  0  0  0  0  0  0  0  0  0  0
    3.1602    0.9237    3.8781 H   0  0  0  0  0  0  0  0  0  0  0  0
  1 24  2  0
  2 22  1  0
  5 35  1  0
  6 15  2  0
  7  6  1  0
  8 10  2  0
  8  6  1  0
  9  8  1  0
 10 12  1  0
 11 10  1  0
 12 13  1  0
 12 14  2  0
 14 19  1  0
 15 14  1  0
 16 15  1  6
 16 27  1  0
 16 17  1  0
 17 22  1  0
 17 18  1  1
 19 17  1  0
 19 20  1  1
 21 19  1  0
 22 33  1  0
 22 23  1  1
 24 25  1  0
 24  2  1  0
 25 26  1  6
 25 16  1  0
 25 31  1  0
 27 28  1  1
 27 30  1  0
 29 27  1  0
 30  3  2  0
 31 32  1  6
 31 30  1  0
 31 33  1  0
 33 35  1  0
 33 34  1  1
 35  4  2  0
 36  5  1  0
 36 39  1  1
 36 38  1  0
 37 36  1  0
M  END
$$$$
