out_1011159
     RDKit          3D

 46 47  0  0  0  0  0  0  0  0999 V2000
    1.1509   14.6404    6.7659 C   0  0  0  0  0  0  0  0  0  0  0  0
    2.0859   15.5448    6.2535 C   0  0  0  0  0  0  0  0  0  0  0  0
    2.5351   15.5119    4.9442 C   0  0  0  0  0  0  0  0  0  0  0  0
    3.1766   16.1415    4.6379 H   0  0  0  0  0  0  0  0  0  0  0  0
    2.0390   14.5541    4.0987 C   0  0  0  0  0  0  0  0  0  0  0  0
    2.3374   14.5107    3.1970 H   0  0  0  0  0  0  0  0  0  0  0  0
    1.0933   13.6456    4.5692 C   0  0  0  0  0  0  0  0  0  0  0  0
    0.7424   12.9883    3.9792 H   0  0  0  0  0  0  0  0  0  0  0  0
    0.6510   13.6805    5.8952 C   0  0  0  0  0  0  0  0  0  0  0  0
   -0.3992   12.6672    6.3138 C   0  0  1  0  0  0  0  0  0  0  0  0
   -1.2298   13.1466    6.5564 H   0  0  0  0  0  0  0  0  0  0  0  0
   -0.6041   12.0811    5.5415 H   0  0  0  0  0  0  0  0  0  0  0  0
    0.0087   11.8435    7.4289 O   0  0  0  0  0  0  0  0  0  0  0  0
    1.5279   10.8534    6.1112 O   0  0  0  0  0  0  0  0  0  0  0  0
    1.0052   10.9407    7.1644 C   0  0  0  0  0  0  0  0  0  0  0  0
    1.2703   10.1063    8.3916 C   0  0  2  0  0  0  0  0  0  0  0  0
    0.5060    9.4923    8.5339 H   0  0  0  0  0  0  0  0  0  0  0  0
    1.3276   10.7026    9.1800 H   0  0  0  0  0  0  0  0  0  0  0  0
    2.5443    9.2903    8.2995 C   0  0  2  0  0  0  0  0  0  0  0  0
    3.2988    9.8821    8.0527 H   0  0  0  0  0  0  0  0  0  0  0  0
    2.4477    8.6043    7.5920 H   0  0  0  0  0  0  0  0  0  0  0  0
    2.8483    8.5976    9.6608 C   0  0  1  0  0  0  0  0  0  0  0  0
    2.0474    8.0971    9.9584 H   0  0  0  0  0  0  0  0  0  0  0  0
    3.5853    7.9475    9.5388 H   0  0  0  0  0  0  0  0  0  0  0  0
    3.2305    9.5821   10.7105 C   0  0  0  0  0  0  0  0  0  0  0  0
    4.0987    9.9632   10.6483 H   0  0  0  0  0  0  0  0  0  0  0  0
    2.4727    9.9768   11.7185 C   0  0  0  0  0  0  0  0  0  0  0  0
    1.6586    9.5095   11.8660 H   0  0  0  0  0  0  0  0  0  0  0  0
    2.8049   11.1113   12.6527 C   0  0  2  0  0  0  0  0  0  0  0  0
    3.7734   11.3092   12.6043 H   0  0  0  0  0  0  0  0  0  0  0  0
    2.5890   10.8501   13.5830 H   0  0  0  0  0  0  0  0  0  0  0  0
    2.0037   12.3569   12.2677 C   0  0  2  0  0  0  0  0  0  0  0  0
    2.0831   13.0315   12.9875 H   0  0  0  0  0  0  0  0  0  0  0  0
    1.0473   12.1159   12.1796 H   0  0  0  0  0  0  0  0  0  0  0  0
    2.4981   12.9653   10.9433 C   0  0  1  0  0  0  0  0  0  0  0  0
    3.3176   13.4921   11.1206 H   0  0  0  0  0  0  0  0  0  0  0  0
    2.7398   12.2317   10.3249 H   0  0  0  0  0  0  0  0  0  0  0  0
    1.4934   13.8491   10.2736 C   0  0  0  0  0  0  0  0  0  0  0  0
    0.6099   14.4554   10.8227 O   0  0  0  0  0  0  0  0  0  0  0  0
    1.6622   13.8764    8.9545 O   0  0  0  0  0  0  0  0  0  0  0  0
    0.7043   14.6815    8.2142 C   0  0  1  0  0  0  0  0  0  0  0  0
    0.7022   15.6139    8.5500 H   0  0  0  0  0  0  0  0  0  0  0  0
   -0.2082   14.3098    8.3076 H   0  0  0  0  0  0  0  0  0  0  0  0
    2.6389   16.6177    7.0907 N   0  0  0  0  0  0  0  0  0  0  0  0
    2.7117   17.7358    6.6102 O   0  0  0  0  0  0  0  0  0  0  0  0
    2.9615   16.3834    8.2510 O   0  0  0  0  0  0  0  0  0  0  0  0
  1 41  1  0
  2  1  2  0
  2 44  1  0
  3  2  1  0
  4  3  1  0
  5  7  1  0
  5  3  2  0
  6  5  1  0
  7  9  2  0
  8  7  1  0
  9 10  1  0
  9  1  1  0
 10 11  1  1
 10 13  1  0
 12 10  1  0
 14 15  2  0
 15 13  1  0
 15 16  1  0
 16 17  1  1
 16 18  1  0
 19 16  1  0
 19 22  1  0
 19 20  1  6
 21 19  1  0
 22 23  1  1
 22 25  1  0
 24 22  1  0
 25 27  2  0
 26 25  1  0
 27 28  1  0
 27 29  1  0
 29 31  1  1
 30 29  1  0
 32 29  1  0
 32 33  1  1
 34 32  1  0
 35 36  1  1
 35 32  1  0
 37 35  1  0
 38 39  2  0
 38 35  1  0
 40 38  1  0
 41 43  1  6
 41 42  1  0
 41 40  1  0
 44 46  1  0
 45 44  2  0
M  CHG  2  44   1  46  -1
M  END
$$$$
