out_1004129
     RDKit          3D

 45 50  0  0  1  0  0  0  0  0999 V2000
    9.9799    1.1913   11.0098 O   0  0  0  0  0  0  0  0  0  0  0  0
    3.4961    2.5810    7.8285 O   0  0  0  0  0  0  0  0  0  0  0  0
    4.3605    1.0470    6.3125 O   0  0  0  0  0  0  0  0  0  0  0  0
    9.6386    0.8228    7.8638 O   0  0  0  0  0  0  0  0  0  0  0  0
   11.3043    1.7195   11.1752 C   0  0  2  0  0  0  0  0  0  0  0  0
   11.7894    1.1792   11.8482 H   0  0  0  0  0  0  0  0  0  0  0  0
   11.2455    2.6476   11.5145 H   0  0  0  0  0  0  0  0  0  0  0  0
   12.0842    1.7116    9.8694 C   0  0  2  0  0  0  0  0  0  0  0  0
   12.2282    0.7777    9.5740 H   0  0  0  0  0  0  0  0  0  0  0  0
   12.9701    2.1308   10.0089 H   0  0  0  0  0  0  0  0  0  0  0  0
   11.3162    2.4794    8.7904 C   0  0  1  0  0  0  0  0  0  0  0  0
   11.3124    3.4452    9.0082 H   0  0  0  0  0  0  0  0  0  0  0  0
   11.7647    2.3622    7.9156 H   0  0  0  0  0  0  0  0  0  0  0  0
    9.8996    1.9741    8.7048 C   0  0  2  0  0  0  0  0  0  0  0  0
    9.1843    1.8968   10.0447 C   0  0  2  0  0  0  0  0  0  0  0  0
    8.3575    1.3535    9.8997 H   0  0  0  0  0  0  0  0  0  0  0  0
    8.7281    3.2769   10.5171 C   0  0  2  0  0  0  0  0  0  0  0  0
    9.5154    3.7953   10.8195 H   0  0  0  0  0  0  0  0  0  0  0  0
    8.1171    3.1724   11.2890 H   0  0  0  0  0  0  0  0  0  0  0  0
    8.0069    4.0535    9.3992 C   0  0  1  0  0  0  0  0  0  0  0  0
    7.4869    4.7896    9.8089 H   0  0  0  0  0  0  0  0  0  0  0  0
    8.6869    4.4608    8.8061 H   0  0  0  0  0  0  0  0  0  0  0  0
    7.0723    3.2079    8.5581 C   0  0  0  0  0  0  0  0  0  0  0  0
    5.6786    3.3756    8.6722 C   0  0  0  0  0  0  0  0  0  0  0  0
    5.3088    4.0060    9.2791 H   0  0  0  0  0  0  0  0  0  0  0  0
    4.8723    2.5998    7.8797 C   0  0  0  0  0  0  0  0  0  0  0  0
    3.1648    1.7008    6.7485 C   0  0  1  0  0  0  0  0  0  0  0  0
    2.5026    1.0295    7.0498 H   0  0  0  0  0  0  0  0  0  0  0  0
    2.7691    2.2158    6.0013 H   0  0  0  0  0  0  0  0  0  0  0  0
    5.3843    1.6806    6.9823 C   0  0  0  0  0  0  0  0  0  0  0  0
    6.7350    1.4839    6.8500 C   0  0  0  0  0  0  0  0  0  0  0  0
    7.0848    0.8484    6.2366 H   0  0  0  0  0  0  0  0  0  0  0  0
    7.5793    2.2606    7.6591 C   0  0  0  0  0  0  0  0  0  0  0  0
    9.0649    2.1105    7.4886 C   0  0  2  0  0  0  0  0  0  0  0  0
    9.6009    2.6430    6.1865 C   0  0  0  0  0  0  0  0  0  0  0  0
   10.6688    2.0125    5.5403 C   0  0  0  0  0  0  0  0  0  0  0  0
   11.1022    1.2733    5.9505 H   0  0  0  0  0  0  0  0  0  0  0  0
   11.0970    2.4666    4.2970 C   0  0  0  0  0  0  0  0  0  0  0  0
   11.8226    2.0332    3.8632 H   0  0  0  0  0  0  0  0  0  0  0  0
   10.4773    3.5436    3.6843 C   0  0  0  0  0  0  0  0  0  0  0  0
   10.7731    3.8459    2.8336 H   0  0  0  0  0  0  0  0  0  0  0  0
    9.4192    4.1784    4.3243 C   0  0  0  0  0  0  0  0  0  0  0  0
    8.9898    4.9177    3.9100 H   0  0  0  0  0  0  0  0  0  0  0  0
    8.9869    3.7335    5.5712 C   0  0  0  0  0  0  0  0  0  0  0  0
    8.2679    4.1766    6.0063 H   0  0  0  0  0  0  0  0  0  0  0  0
  1  5  1  0
  2 26  1  0
  3 27  1  0
  3 30  1  0
  5  7  1  1
  5  6  1  0
  8 10  1  1
  8  5  1  0
  9  8  1  0
 11 12  1  1
 11  8  1  0
 13 11  1  0
 14  4  1  6
 14 11  1  0
 14 15  1  0
 15 16  1  6
 15 17  1  0
 15  1  1  0
 17 18  1  1
 17 19  1  0
 20 21  1  1
 20 17  1  0
 22 20  1  0
 23 24  2  0
 23 20  1  0
 24 25  1  0
 26 24  1  0
 27 28  1  1
 27  2  1  0
 29 27  1  0
 30 26  2  0
 31 30  1  0
 31 33  2  0
 32 31  1  0
 33 23  1  0
 34 35  1  6
 34 33  1  0
 34  4  1  0
 34 14  1  0
 36 37  1  0
 36 35  2  0
 38 36  1  0
 39 38  1  0
 40 38  2  0
 40 42  1  0
 41 40  1  0
 42 44  2  0
 43 42  1  0
 44 45  1  0
 44 35  1  0
M  END
$$$$
