out_1003291
     RDKit          3D

 25 24  0  0  0  0  0  0  0  0999 V2000
    1.8515    4.8886   14.8162 O   0  0  0  0  0  0  0  0  0  0  0  0
    1.5897    5.4699   14.1496 H   0  0  0  0  0  0  0  0  0  0  0  0
    0.2785    3.6269   13.8396 O   0  0  0  0  0  0  0  0  0  0  0  0
    2.9157    3.0659   17.6105 O   0  0  0  0  0  0  0  0  0  0  0  0
    1.1281    3.7892   14.7052 C   0  0  0  0  0  0  0  0  0  0  0  0
    1.4917    2.7105   15.7114 C   0  0  1  0  0  0  0  0  0  0  0  0
    0.2917    1.7675   15.9067 C   0  0  2  0  0  0  0  0  0  0  0  0
    0.1151    1.3208   15.0430 H   0  0  0  0  0  0  0  0  0  0  0  0
   -0.5336    2.2561   16.2252 H   0  0  0  0  0  0  0  0  0  0  0  0
    0.4843    1.0933   16.5730 H   0  0  0  0  0  0  0  0  0  0  0  0
    2.6892    1.9452   15.1243 C   0  0  2  0  0  0  0  0  0  0  0  0
    3.4832    2.5299   15.0590 H   0  0  0  0  0  0  0  0  0  0  0  0
    2.4769    1.5735   14.2432 H   0  0  0  0  0  0  0  0  0  0  0  0
    2.9232    1.1709   15.7037 H   0  0  0  0  0  0  0  0  0  0  0  0
    1.8663    3.3447   17.0667 C   0  0  0  0  0  0  0  0  0  0  0  0
    0.8576    4.2749   17.7312 C   0  0  2  0  0  0  0  0  0  0  0  0
    0.1323    4.4372   17.0919 H   0  0  0  0  0  0  0  0  0  0  0  0
    1.5429    5.5773   18.1468 C   0  0  2  0  0  0  0  0  0  0  0  0
    1.9613    6.0339   17.3834 H   0  0  0  0  0  0  0  0  0  0  0  0
    2.2500    5.4058   18.8064 H   0  0  0  0  0  0  0  0  0  0  0  0
    0.8888    6.1844   18.5470 H   0  0  0  0  0  0  0  0  0  0  0  0
    0.2442    3.5791   18.9541 C   0  0  2  0  0  0  0  0  0  0  0  0
   -0.1738    2.7458   18.7502 H   0  0  0  0  0  0  0  0  0  0  0  0
   -0.3983    4.1620   19.3895 H   0  0  0  0  0  0  0  0  0  0  0  0
    0.9290    3.4141   19.6623 H   0  0  0  0  0  0  0  0  0  0  0  0
  2  1  1  0
  3  5  2  0
  5  1  1  0
  6  5  1  6
  6  7  1  0
  6 15  1  0
  7  9  1  1
  7 10  1  0
  8  7  1  0
 11 14  1  1
 11  6  1  0
 12 11  1  0
 13 11  1  0
 15  4  2  0
 15 16  1  0
 16 18  1  0
 16 22  1  0
 16 17  1  6
 18 21  1  1
 18 20  1  0
 19 18  1  0
 22 24  1  1
 22 25  1  0
 23 22  1  0
M  END
$$$$
