out_1010713
     RDKit          3D

 47 49  0  0  1  0  0  0  0  0999 V2000
    8.0397    4.1349    6.0905 O   0  0  0  0  0  0  0  0  0  0  0  0
    7.4956    0.8163    5.3108 O   0  0  0  0  0  0  0  0  0  0  0  0
    8.0042    5.8557    4.6624 O   0  0  0  0  0  0  0  0  0  0  0  0
    7.6084    1.7364    4.5204 C   0  0  0  0  0  0  0  0  0  0  0  0
    6.4408    2.2819    3.7932 C   0  0  0  0  0  0  0  0  0  0  0  0
    8.2821    4.6052    5.0061 C   0  0  0  0  0  0  0  0  0  0  0  0
    6.5851    3.3341    2.8874 C   0  0  0  0  0  0  0  0  0  0  0  0
    8.9683    2.3266    4.2092 C   0  0  1  0  0  0  0  0  0  0  0  0
    9.2766    1.8726    3.3969 H   0  0  0  0  0  0  0  0  0  0  0  0
    8.8817    3.8316    3.8438 C   0  0  1  0  0  0  0  0  0  0  0  0
   11.7455    0.5961    5.9191 F   0  0  0  0  0  0  0  0  0  0  0  0
   10.3973   -0.1594    4.4792 F   0  0  0  0  0  0  0  0  0  0  0  0
    5.1796    1.7206    4.0140 C   0  0  0  0  0  0  0  0  0  0  0  0
    5.0835    1.0305    4.6303 H   0  0  0  0  0  0  0  0  0  0  0  0
    7.9361    3.9469    2.6294 C   0  0  2  0  0  0  0  0  0  0  0  0
    7.8228    4.8831    2.4040 H   0  0  0  0  0  0  0  0  0  0  0  0
    8.3447    3.5055    1.8677 H   0  0  0  0  0  0  0  0  0  0  0  0
   11.7602    1.3113    3.9273 F   0  0  0  0  0  0  0  0  0  0  0  0
    5.4513    3.7898    2.2239 C   0  0  0  0  0  0  0  0  0  0  0  0
    5.5221    4.4961    1.6230 H   0  0  0  0  0  0  0  0  0  0  0  0
    9.9988    1.9883    5.2935 C   0  0  1  0  0  0  0  0  0  0  0  0
   10.5230    2.7825    5.4791 H   0  0  0  0  0  0  0  0  0  0  0  0
    9.5241    1.7550    6.1069 H   0  0  0  0  0  0  0  0  0  0  0  0
   11.1648    6.2053    4.8901 C   0  0  0  0  0  0  0  0  0  0  0  0
   10.2511    4.3134    3.4003 C   0  0  0  0  0  0  0  0  0  0  0  0
   10.5572    3.8441    2.6571 H   0  0  0  0  0  0  0  0  0  0  0  0
   11.1162    5.2189    3.7928 C   0  0  0  0  0  0  0  0  0  0  0  0
   11.8752    5.2452    3.2545 H   0  0  0  0  0  0  0  0  0  0  0  0
    4.0947    2.1751    3.3396 C   0  0  0  0  0  0  0  0  0  0  0  0
    3.2618    1.7867    3.4814 H   0  0  0  0  0  0  0  0  0  0  0  0
    4.2283    3.2079    2.4451 C   0  0  0  0  0  0  0  0  0  0  0  0
    3.4823    3.5173    1.9839 H   0  0  0  0  0  0  0  0  0  0  0  0
    7.4326    6.7027    5.6849 C   0  0  2  0  0  0  0  0  0  0  0  0
    7.2086    7.5561    5.3061 H   0  0  0  0  0  0  0  0  0  0  0  0
    8.0691    6.8245    6.3933 H   0  0  0  0  0  0  0  0  0  0  0  0
    6.6391    6.2908    6.0357 H   0  0  0  0  0  0  0  0  0  0  0  0
   11.6275    7.4701    4.6039 C   0  0  0  0  0  0  0  0  0  0  0  0
   11.8768    7.6746    3.7320 H   0  0  0  0  0  0  0  0  0  0  0  0
   10.8554    5.9257    6.2119 C   0  0  0  0  0  0  0  0  0  0  0  0
   10.5673    5.0727    6.4450 H   0  0  0  0  0  0  0  0  0  0  0  0
   10.9164    0.8924    4.9606 C   0  0  2  0  0  0  0  0  0  0  0  0
   10.9690    6.9014    7.1910 C   0  0  0  0  0  0  0  0  0  0  0  0
   10.7596    6.6934    8.0726 H   0  0  0  0  0  0  0  0  0  0  0  0
   11.7292    8.4458    5.5786 C   0  0  0  0  0  0  0  0  0  0  0  0
   12.0321    9.2978    5.3599 H   0  0  0  0  0  0  0  0  0  0  0  0
   11.3788    8.1436    6.8820 C   0  0  0  0  0  0  0  0  0  0  0  0
   11.4267    8.7971    7.5424 H   0  0  0  0  0  0  0  0  0  0  0  0
  3  6  1  0
  3 33  1  0
  4  2  2  0
  5 13  1  0
  5  4  1  0
  6  1  2  0
  7  5  2  0
  8  9  1  6
  8  4  1  0
  8 21  1  0
 10 25  1  6
 10  8  1  0
 10  6  1  0
 41 12  1  6
 13 14  1  0
 15  7  1  0
 15 10  1  0
 15 16  1  6
 17 15  1  0
 18 41  1  0
 19 31  2  0
 19  7  1  0
 20 19  1  0
 21 22  1  1
 21 23  1  0
 24 39  1  0
 25 27  2  0
 26 25  1  0
 27 24  1  0
 28 27  1  0
 29 30  1  0
 29 13  2  0
 31 29  1  0
 32 31  1  0
 33 36  1  1
 33 35  1  0
 34 33  1  0
 37 24  2  0
 37 44  1  0
 38 37  1  0
 39 40  1  0
 39 42  2  0
 41 21  1  0
 41 11  1  0
 42 43  1  0
 44 46  2  0
 45 44  1  0
 46 42  1  0
 46 47  1  0
M  END
$$$$
