out_1007880
     RDKit          3D

 64 69  0  0  1  0  0  0  0  0999 V2000
    1.6246    6.7094   11.6719 S   0  0  2  0  0  0  0  0  0  0  0  0
    6.1011    6.5814    9.9853 O   0  0  0  0  0  0  0  0  0  0  0  0
    1.6233    8.1288   11.6000 O   0  0  0  0  0  0  0  0  0  0  0  0
    0.7636    6.0482   12.5974 O   0  0  0  0  0  0  0  0  0  0  0  0
    3.1732    6.2705   12.0632 N   0  0  0  0  0  0  0  0  0  0  0  0
    4.6954    8.0965   10.9675 C   0  0  0  0  0  0  0  0  0  0  0  0
    4.3371    4.8701   13.7019 C   0  0  0  0  0  0  0  0  0  0  0  0
    4.6589    4.0410   13.9735 H   0  0  0  0  0  0  0  0  0  0  0  0
    4.2427    6.7454   11.2454 C   0  0  0  0  0  0  0  0  0  0  0  0
    5.1052    5.8949   10.6536 C   0  0  0  0  0  0  0  0  0  0  0  0
    6.4107    3.8135   11.2111 C   0  0  0  0  0  0  0  0  0  0  0  0
    5.1222    4.4208   10.6599 C   0  0  1  0  0  0  0  0  0  0  0  0
    5.0460    4.1302    9.7267 H   0  0  0  0  0  0  0  0  0  0  0  0
    4.7570    5.9208   14.3835 C   0  0  0  0  0  0  0  0  0  0  0  0
    4.4770    6.7542   14.0791 H   0  0  0  0  0  0  0  0  0  0  0  0
    1.2888    6.1029   10.0494 C   0  0  0  0  0  0  0  0  0  0  0  0
    3.3956    4.8747   12.5357 C   0  0  2  0  0  0  0  0  0  0  0  0
    2.5335    4.5391   12.8594 H   0  0  0  0  0  0  0  0  0  0  0  0
    5.8300    7.9143   10.1724 C   0  0  0  0  0  0  0  0  0  0  0  0
    5.6175    5.9097   15.5684 C   0  0  0  0  0  0  0  0  0  0  0  0
    3.8397    3.9513   11.3857 C   0  0  1  0  0  0  0  0  0  0  0  0
    3.1191    3.8915   10.7386 H   0  0  0  0  0  0  0  0  0  0  0  0
    3.9901    3.0620   11.7419 H   0  0  0  0  0  0  0  0  0  0  0  0
    7.1917    4.4349   12.1700 C   0  0  0  0  0  0  0  0  0  0  0  0
    6.9466    5.2713   12.4932 H   0  0  0  0  0  0  0  0  0  0  0  0
    4.3136    9.4003   11.2871 C   0  0  0  0  0  0  0  0  0  0  0  0
    3.5769    9.5613   11.8322 H   0  0  0  0  0  0  0  0  0  0  0  0
    1.8747    6.7322    8.9619 C   0  0  0  0  0  0  0  0  0  0  0  0
    2.4500    7.4517    9.0896 H   0  0  0  0  0  0  0  0  0  0  0  0
    1.5955    6.2804    7.6879 C   0  0  0  0  0  0  0  0  0  0  0  0
    1.9871    6.7033    6.9586 H   0  0  0  0  0  0  0  0  0  0  0  0
    6.8139    2.5696   10.7427 C   0  0  0  0  0  0  0  0  0  0  0  0
    6.3029    2.1363   10.0964 H   0  0  0  0  0  0  0  0  0  0  0  0
    8.3341    3.8197   12.6504 C   0  0  0  0  0  0  0  0  0  0  0  0
    8.8443    4.2414   13.3040 H   0  0  0  0  0  0  0  0  0  0  0  0
    0.4582    5.0211    9.8674 C   0  0  0  0  0  0  0  0  0  0  0  0
    0.0846    4.5843   10.5972 H   0  0  0  0  0  0  0  0  0  0  0  0
    6.5762    8.9439    9.6567 C   0  0  0  0  0  0  0  0  0  0  0  0
    7.3254    8.7863    9.1288 H   0  0  0  0  0  0  0  0  0  0  0  0
    0.7415    5.2064    7.4736 C   0  0  0  0  0  0  0  0  0  0  0  0
    6.1617   10.2275    9.9572 C   0  0  0  0  0  0  0  0  0  0  0  0
    6.6262   10.9551    9.6109 H   0  0  0  0  0  0  0  0  0  0  0  0
    8.7220    2.5951   12.1724 C   0  0  0  0  0  0  0  0  0  0  0  0
    9.4970    2.1931   12.4914 H   0  0  0  0  0  0  0  0  0  0  0  0
    5.0550   10.4441   10.7744 C   0  0  0  0  0  0  0  0  0  0  0  0
    4.8086   11.3177   10.9805 H   0  0  0  0  0  0  0  0  0  0  0  0
    0.1874    4.5947    8.5718 C   0  0  0  0  0  0  0  0  0  0  0  0
   -0.3863    3.8741    8.4457 H   0  0  0  0  0  0  0  0  0  0  0  0
    6.2498    4.7731   16.0370 C   0  0  0  0  0  0  0  0  0  0  0  0
    6.1793    3.9796   15.5577 H   0  0  0  0  0  0  0  0  0  0  0  0
    7.9592    1.9660   11.2193 C   0  0  0  0  0  0  0  0  0  0  0  0
    8.2141    1.1330   10.8953 H   0  0  0  0  0  0  0  0  0  0  0  0
    5.7825    7.0751   16.2965 C   0  0  0  0  0  0  0  0  0  0  0  0
    5.3858    7.8618   15.9989 H   0  0  0  0  0  0  0  0  0  0  0  0
    7.1268    5.9398   17.9209 C   0  0  0  0  0  0  0  0  0  0  0  0
    7.6197    5.9479   18.7091 H   0  0  0  0  0  0  0  0  0  0  0  0
    6.9860    4.7998   17.2080 C   0  0  0  0  0  0  0  0  0  0  0  0
    7.3914    4.0189   17.5098 H   0  0  0  0  0  0  0  0  0  0  0  0
    6.5273    7.0890   17.4575 C   0  0  0  0  0  0  0  0  0  0  0  0
    6.6243    7.8826   17.9323 H   0  0  0  0  0  0  0  0  0  0  0  0
    0.4235    4.7569    6.0643 C   0  0  2  0  0  0  0  0  0  0  0  0
    0.3781    5.5216    5.4868 H   0  0  0  0  0  0  0  0  0  0  0  0
   -0.4213    4.2993    6.0575 H   0  0  0  0  0  0  0  0  0  0  0  0
    1.1100    4.1626    5.7543 H   0  0  0  0  0  0  0  0  0  0  0  0
  1  5  1  1
  1  4  2  0
  2 19  1  0
  2 10  1  0
  3  1  2  0
  5 17  1  0
  6  9  1  0
  6 26  1  0
  7  8  1  0
  7 14  2  0
  9  5  1  0
 10 12  1  0
 10  9  2  0
 11 24  2  0
 12 13  1  6
 12 11  1  0
 12 21  1  0
 14 20  1  0
 15 14  1  0
 16  1  1  0
 17 18  1  1
 17  7  1  0
 19  6  2  0
 20 49  2  0
 20 53  1  0
 21 23  1  1
 21 17  1  0
 22 21  1  0
 24 25  1  0
 24 34  1  0
 26 27  1  0
 28 29  1  0
 28 16  2  0
 30 28  1  0
 31 30  1  0
 32 11  1  0
 32 51  2  0
 33 32  1  0
 34 35  1  0
 36 16  1  0
 36 37  1  0
 38 41  2  0
 38 19  1  0
 39 38  1  0
 40 30  2  0
 40 47  1  0
 41 45  1  0
 42 41  1  0
 43 44  1  0
 43 34  2  0
 45 46  1  0
 45 26  2  0
 47 36  2  0
 48 47  1  0
 49 57  1  0
 50 49  1  0
 51 43  1  0
 52 51  1  0
 53 59  2  0
 54 53  1  0
 55 56  1  0
 57 58  1  0
 57 55  2  0
 59 55  1  0
 59 60  1  0
 61 40  1  0
 61 62  1  6
 63 61  1  0
 64 61  1  0
M  END
$$$$
