out_1978473
     RDKit          3D

 34 36  0  0  0  0  0  0  0  0999 V2000
    3.1973   17.0693    9.7436 C   0  0  0  0  0  0  0  0  0  0  0  0
    4.7024   18.4088   10.5289 C   0  0  0  0  0  0  0  0  0  0  0  0
    5.6228   19.1097   11.3052 C   0  0  0  0  0  0  0  0  0  0  0  0
    5.7437   18.9056   12.2252 H   0  0  0  0  0  0  0  0  0  0  0  0
    6.3554   20.1121   10.6966 C   0  0  0  0  0  0  0  0  0  0  0  0
    6.9812   20.6087   11.2102 H   0  0  0  0  0  0  0  0  0  0  0  0
    6.1921   20.4068    9.3403 C   0  0  0  0  0  0  0  0  0  0  0  0
    6.7152   21.0981    8.9506 H   0  0  0  0  0  0  0  0  0  0  0  0
    5.2888   19.7189    8.5523 C   0  0  0  0  0  0  0  0  0  0  0  0
    5.1842   19.9164    7.6292 H   0  0  0  0  0  0  0  0  0  0  0  0
    4.5400   18.7255    9.1729 C   0  0  0  0  0  0  0  0  0  0  0  0
    2.2073   16.0079    9.6600 C   0  0  0  0  0  0  0  0  0  0  0  0
    2.0577   15.1262   10.7538 C   0  0  0  0  0  0  0  0  0  0  0  0
    1.1538   14.0746   10.6835 C   0  0  0  0  0  0  0  0  0  0  0  0
    0.3695   13.8891    9.5419 C   0  0  0  0  0  0  0  0  0  0  0  0
    0.4851   14.7794    8.4728 C   0  0  0  0  0  0  0  0  0  0  0  0
   -0.0612   14.6723    7.7026 H   0  0  0  0  0  0  0  0  0  0  0  0
    1.3976   15.8166    8.5386 C   0  0  0  0  0  0  0  0  0  0  0  0
    1.4757   16.4139    7.8031 H   0  0  0  0  0  0  0  0  0  0  0  0
    1.8948   12.1043   11.6830 C   0  0  2  0  0  0  0  0  0  0  0  0
    1.6224   11.5459   10.9262 H   0  0  0  0  0  0  0  0  0  0  0  0
    1.8393   11.5823   12.5115 H   0  0  0  0  0  0  0  0  0  0  0  0
    2.8171   12.4071   11.5497 H   0  0  0  0  0  0  0  0  0  0  0  0
   -1.2928   12.6217    8.4135 C   0  0  2  0  0  0  0  0  0  0  0  0
   -1.8906   13.3923    8.3177 H   0  0  0  0  0  0  0  0  0  0  0  0
   -1.8255   11.8066    8.5259 H   0  0  0  0  0  0  0  0  0  0  0  0
   -0.7355   12.5396    7.6115 H   0  0  0  0  0  0  0  0  0  0  0  0
    3.8517   17.3623   10.8574 N   0  0  0  0  0  0  0  0  0  0  0  0
    3.5729   17.8640    8.7022 N   0  0  0  0  0  0  0  0  0  0  0  0
    3.2567   17.8328    7.8812 H   0  0  0  0  0  0  0  0  0  0  0  0
    2.7863   15.2516   11.8865 O   0  0  0  0  0  0  0  0  0  0  0  0
    3.2991   15.9139   11.8182 H   0  0  0  0  0  0  0  0  0  0  0  0
    1.0314   13.2337   11.7739 O   0  0  0  0  0  0  0  0  0  0  0  0
   -0.4579   12.8065    9.5566 O   0  0  0  0  0  0  0  0  0  0  0  0
  1 28  2  0
  2 28  1  0
  2  3  2  0
  3  4  1  0
  5  6  1  0
  5  3  1  0
  7  5  2  0
  8  7  1  0
  9 11  2  0
  9  7  1  0
 10  9  1  0
 11  2  1  0
 12  1  1  0
 12 13  2  0
 13 31  1  0
 14 13  1  0
 14 33  1  0
 15 34  1  0
 15 14  2  0
 16 18  2  0
 16 15  1  0
 17 16  1  0
 18 12  1  0
 19 18  1  0
 20 33  1  0
 20 22  1  1
 21 20  1  0
 23 20  1  0
 24 26  1  1
 24 34  1  0
 25 24  1  0
 27 24  1  0
 29 11  1  0
 29  1  1  0
 30 29  1  0
 32 31  1  0
M  END
$$$$
