out_1130245
     RDKit          3D

 52 54  0  0  1  0  0  0  0  0999 V2000
    2.2441   12.1178    7.4042 O   0  0  0  0  0  0  0  0  0  0  0  0
    1.6888   11.8319    7.9659 H   0  0  0  0  0  0  0  0  0  0  0  0
    6.0441   11.7544    0.1497 O   0  0  0  0  0  0  0  0  0  0  0  0
    6.8677   11.6325    0.2637 H   0  0  0  0  0  0  0  0  0  0  0  0
    5.8644   15.1490    6.1832 O   0  0  0  0  0  0  0  0  0  0  0  0
    5.8858   15.1608    1.9173 C   0  0  2  0  0  0  0  0  0  0  0  0
    4.6774   14.9943    4.1542 C   0  0  0  0  0  0  0  0  0  0  0  0
    3.4973   14.7471    3.5384 C   0  0  0  0  0  0  0  0  0  0  0  0
    4.5383   15.6821    1.4079 C   0  0  1  0  0  0  0  0  0  0  0  0
    4.4682   16.6490    1.6071 H   0  0  0  0  0  0  0  0  0  0  0  0
    4.4987   15.5727    0.4240 H   0  0  0  0  0  0  0  0  0  0  0  0
    5.9203   15.4359    3.4226 C   0  0  1  0  0  0  0  0  0  0  0  0
    6.7017   14.9700    3.8128 H   0  0  0  0  0  0  0  0  0  0  0  0
    6.0461   16.4065    3.5652 H   0  0  0  0  0  0  0  0  0  0  0  0
    1.5538   12.9100    6.3979 C   0  0  2  0  0  0  0  0  0  0  0  0
    1.3775   15.5555    4.4966 C   0  0  2  0  0  0  0  0  0  0  0  0
    1.7846   16.1120    5.1936 H   0  0  0  0  0  0  0  0  0  0  0  0
    0.4768   15.2895    4.7767 H   0  0  0  0  0  0  0  0  0  0  0  0
    1.3226   16.0644    3.6614 H   0  0  0  0  0  0  0  0  0  0  0  0
    3.3631   14.9582    2.0377 C   0  0  1  0  0  0  0  0  0  0  0  0
    3.2609   14.0750    1.6000 H   0  0  0  0  0  0  0  0  0  0  0  0
    2.5385   15.4775    1.8619 H   0  0  0  0  0  0  0  0  0  0  0  0
    4.8082   14.8875    5.6234 C   0  0  0  0  0  0  0  0  0  0  0  0
    2.6759   13.5768    5.5861 C   0  0  1  0  0  0  0  0  0  0  0  0
    3.2588   12.8220    5.2863 H   0  0  0  0  0  0  0  0  0  0  0  0
    7.0273   15.9173    1.2310 C   0  0  2  0  0  0  0  0  0  0  0  0
    6.9461   16.8755    1.4236 H   0  0  0  0  0  0  0  0  0  0  0  0
    6.9784   15.7744    0.2619 H   0  0  0  0  0  0  0  0  0  0  0  0
    7.8864   15.5886    1.5661 H   0  0  0  0  0  0  0  0  0  0  0  0
    6.0489   13.6391    1.6901 C   0  0  1  0  0  0  0  0  0  0  0  0
    6.9790   13.3885    1.9135 H   0  0  0  0  0  0  0  0  0  0  0  0
    5.4524   13.1642    2.3215 H   0  0  0  0  0  0  0  0  0  0  0  0
    5.7457   13.1517    0.2869 C   0  0  2  0  0  0  0  0  0  0  0  0
    4.7885   13.3047    0.0855 H   0  0  0  0  0  0  0  0  0  0  0  0
    6.2823   13.6695   -0.3652 H   0  0  0  0  0  0  0  0  0  0  0  0
    2.2434   14.2914    4.2737 C   0  0  2  0  0  0  0  0  0  0  0  0
    1.4545   13.2652    3.4285 C   0  0  1  0  0  0  0  0  0  0  0  0
    1.0904   13.7193    2.6280 H   0  0  0  0  0  0  0  0  0  0  0  0
    2.0738   12.5570    3.1197 H   0  0  0  0  0  0  0  0  0  0  0  0
    0.6092   13.8521    7.1394 C   0  0  2  0  0  0  0  0  0  0  0  0
    0.0778   13.3409    7.7842 H   0  0  0  0  0  0  0  0  0  0  0  0
    0.0128   14.2880    6.4960 H   0  0  0  0  0  0  0  0  0  0  0  0
    1.1321   14.5327    7.6132 H   0  0  0  0  0  0  0  0  0  0  0  0
    0.3088   12.6204    4.1955 C   0  0  2  0  0  0  0  0  0  0  0  0
   -0.1339   11.9497    3.6186 H   0  0  0  0  0  0  0  0  0  0  0  0
   -0.3604   13.3115    4.4257 H   0  0  0  0  0  0  0  0  0  0  0  0
    3.5924   14.4749    6.4150 C   0  0  2  0  0  0  0  0  0  0  0  0
    3.0948   15.2827    6.6974 H   0  0  0  0  0  0  0  0  0  0  0  0
    3.8796   13.9912    7.2301 H   0  0  0  0  0  0  0  0  0  0  0  0
    0.7936   11.9429    5.4755 C   0  0  1  0  0  0  0  0  0  0  0  0
    1.3875   11.1884    5.2382 H   0  0  0  0  0  0  0  0  0  0  0  0
    0.0146   11.5759    5.9633 H   0  0  0  0  0  0  0  0  0  0  0  0
  1  2  1  0
  3  4  1  0
  3 33  1  0
  6 26  1  0
  6 12  1  1
  7 23  1  0
  8  7  2  0
 36  8  1  6
  9 10  1  6
  9  6  1  0
  9 20  1  0
 11  9  1  0
 12 14  1  6
 12 13  1  0
 12  7  1  0
 15 40  1  0
 15  1  1  1
 16 18  1  1
 16 17  1  0
 19 16  1  0
 20  8  1  0
 20 21  1  6
 22 20  1  0
 23  5  2  0
 23 47  1  0
 24 25  1  6
 24 15  1  0
 24 47  1  0
 26 27  1  6
 26 29  1  0
 28 26  1  0
 30 31  1  1
 30  6  1  0
 30 32  1  0
 33 30  1  0
 33 34  1  6
 35 33  1  0
 36 16  1  0
 36 24  1  0
 37 44  1  0
 37 36  1  0
 37 38  1  6
 39 37  1  0
 40 43  1  1
 40 41  1  0
 42 40  1  0
 44 46  1  1
 44 50  1  0
 45 44  1  0
 47 48  1  1
 47 49  1  0
 50 52  1  1
 50 15  1  0
 51 50  1  0
M  END
$$$$
