out_1000744
     RDKit          3D

 53 60  0  0  0  0  0  0  0  0999 V2000
    8.5589   11.8216    8.9559 S   0  0  0  0  0  0  0  0  0  0  0  0
    6.7820    8.0054   10.6086 N   0  0  0  0  0  0  0  0  0  0  0  0
    8.0566    9.3578    5.2114 N   0  0  0  0  0  0  0  0  0  0  0  0
    8.4624   11.2141    7.4658 N   0  0  0  0  0  0  0  0  0  0  0  0
    7.9422   10.6186    9.8359 N   0  0  0  0  0  0  0  0  0  0  0  0
    7.6813    9.0582    6.5491 C   0  0  0  0  0  0  0  0  0  0  0  0
    7.6422    9.6395    8.9618 C   0  0  0  0  0  0  0  0  0  0  0  0
    7.9408    9.9875    7.5978 C   0  0  0  0  0  0  0  0  0  0  0  0
    7.0680    8.3700    9.2676 C   0  0  0  0  0  0  0  0  0  0  0  0
    7.7391    7.8362   11.6103 C   0  0  0  0  0  0  0  0  0  0  0  0
    7.4366   10.2889    4.3810 C   0  0  0  0  0  0  0  0  0  0  0  0
    7.0985    7.8679    6.8761 C   0  0  0  0  0  0  0  0  0  0  0  0
    6.8926    7.2639    6.1995 H   0  0  0  0  0  0  0  0  0  0  0  0
    8.9685    8.6164    4.4593 C   0  0  0  0  0  0  0  0  0  0  0  0
    5.8064    6.8018   12.2902 C   0  0  0  0  0  0  0  0  0  0  0  0
    8.9324    9.0843    3.1267 C   0  0  0  0  0  0  0  0  0  0  0  0
    5.6066    7.3590   11.0075 C   0  0  0  0  0  0  0  0  0  0  0  0
    7.9466   10.1288    3.0726 C   0  0  0  0  0  0  0  0  0  0  0  0
    7.1635    7.0996   12.6682 C   0  0  0  0  0  0  0  0  0  0  0  0
    6.7972    7.5277    8.2236 C   0  0  0  0  0  0  0  0  0  0  0  0
    6.4028    6.7058    8.4009 H   0  0  0  0  0  0  0  0  0  0  0  0
    6.4749   11.2412    4.6974 C   0  0  0  0  0  0  0  0  0  0  0  0
    6.1502   11.3400    5.5646 H   0  0  0  0  0  0  0  0  0  0  0  0
    7.4586   10.9454    2.0462 C   0  0  0  0  0  0  0  0  0  0  0  0
    7.7754   10.8512    1.1762 H   0  0  0  0  0  0  0  0  0  0  0  0
    4.4005    7.2331   10.3300 C   0  0  0  0  0  0  0  0  0  0  0  0
    4.2763    7.6166    9.4926 H   0  0  0  0  0  0  0  0  0  0  0  0
    9.8344    7.6063    4.8625 C   0  0  0  0  0  0  0  0  0  0  0  0
    9.8478    7.3063    5.7427 H   0  0  0  0  0  0  0  0  0  0  0  0
    9.0633    8.2539   11.6418 C   0  0  0  0  0  0  0  0  0  0  0  0
    9.4354    8.7350   10.9368 H   0  0  0  0  0  0  0  0  0  0  0  0
    9.7954    8.5146    2.1807 C   0  0  0  0  0  0  0  0  0  0  0  0
    9.7860    8.8064    1.2967 H   0  0  0  0  0  0  0  0  0  0  0  0
    6.0193   12.0405    3.6541 C   0  0  0  0  0  0  0  0  0  0  0  0
    5.3782   12.6906    3.8290 H   0  0  0  0  0  0  0  0  0  0  0  0
    6.5018   11.8919    2.3449 C   0  0  0  0  0  0  0  0  0  0  0  0
    6.1708   12.4383    1.6690 H   0  0  0  0  0  0  0  0  0  0  0  0
   10.6780    7.0623    3.9015 C   0  0  0  0  0  0  0  0  0  0  0  0
   11.2668    6.3844    4.1420 H   0  0  0  0  0  0  0  0  0  0  0  0
   10.6586    7.5150    2.5789 C   0  0  0  0  0  0  0  0  0  0  0  0
   11.2372    7.1366    1.9568 H   0  0  0  0  0  0  0  0  0  0  0  0
    3.3904    6.5152   10.9478 C   0  0  0  0  0  0  0  0  0  0  0  0
    2.5725    6.4201   10.5177 H   0  0  0  0  0  0  0  0  0  0  0  0
    4.7654    6.0698   12.8806 C   0  0  0  0  0  0  0  0  0  0  0  0
    4.8756    5.6857   13.7191 H   0  0  0  0  0  0  0  0  0  0  0  0
    7.9504    6.7826   13.7821 C   0  0  0  0  0  0  0  0  0  0  0  0
    7.5911    6.2951   14.4871 H   0  0  0  0  0  0  0  0  0  0  0  0
    3.5767    5.9290   12.2015 C   0  0  0  0  0  0  0  0  0  0  0  0
    2.8882    5.4356   12.5842 H   0  0  0  0  0  0  0  0  0  0  0  0
    9.8152    7.9258   12.7657 C   0  0  0  0  0  0  0  0  0  0  0  0
   10.7036    8.1947   12.8145 H   0  0  0  0  0  0  0  0  0  0  0  0
    9.2573    7.1983   13.8243 C   0  0  0  0  0  0  0  0  0  0  0  0
    9.7808    6.9938   14.5662 H   0  0  0  0  0  0  0  0  0  0  0  0
  1  5  1  0
  2 17  1  0
  2 10  1  0
  3  6  1  0
  4  8  2  0
  4  1  1  0
  6 12  2  0
  6  8  1  0
  7  9  1  0
  7  5  2  0
  8  7  1  0
  9  2  1  0
 10 30  1  0
 10 19  2  0
 11 22  2  0
 11  3  1  0
 12 20  1  0
 13 12  1  0
 14 28  1  0
 14  3  1  0
 15 19  1  0
 15 44  1  0
 16 14  2  0
 17 15  2  0
 18 16  1  0
 18 11  1  0
 19 46  1  0
 20 21  1  0
 20  9  2  0
 22 23  1  0
 24 36  1  0
 24 18  2  0
 25 24  1  0
 26 42  2  0
 26 17  1  0
 27 26  1  0
 28 29  1  0
 30 50  2  0
 31 30  1  0
 32 40  2  0
 32 16  1  0
 33 32  1  0
 34 35  1  0
 34 22  1  0
 36 34  2  0
 37 36  1  0
 38 39  1  0
 38 28  2  0
 40 38  1  0
 41 40  1  0
 42 48  1  0
 43 42  1  0
 44 45  1  0
 46 52  2  0
 46 47  1  0
 48 49  1  0
 48 44  2  0
 50 51  1  0
 50 52  1  0
 52 53  1  0
M  END
$$$$
