out_1013710
     RDKit          3D

 57 59  0  0  0  0  0  0  0  0999 V2000
    8.1791    0.6329    8.1906 O   0  0  0  0  0  0  0  0  0  0  0  0
    5.4857    3.0895   10.5770 N   0  0  0  0  0  0  0  0  0  0  0  0
    5.4242    3.9426   10.4876 H   0  0  0  0  0  0  0  0  0  0  0  0
    7.5548    4.6096    9.2047 C   0  0  1  0  0  0  0  0  0  0  0  0
    7.0832    4.9945    9.9727 H   0  0  0  0  0  0  0  0  0  0  0  0
    7.3529    3.1647    9.2170 N   0  0  0  0  0  0  0  0  0  0  0  0
    7.8655    2.7097    8.6976 H   0  0  0  0  0  0  0  0  0  0  0  0
    9.0366    4.9016    9.3570 C   0  0  2  0  0  0  0  0  0  0  0  0
    9.5247    4.4922    8.6255 H   0  0  0  0  0  0  0  0  0  0  0  0
    9.3593    4.5167   10.1870 H   0  0  0  0  0  0  0  0  0  0  0  0
    9.2895    6.4030    9.3604 C   0  0  1  0  0  0  0  0  0  0  0  0
    8.8646    6.7988   10.1374 H   0  0  0  0  0  0  0  0  0  0  0  0
   10.2431    6.5683    9.4236 H   0  0  0  0  0  0  0  0  0  0  0  0
    8.7492    7.0566    8.1063 C   0  0  1  0  0  0  0  0  0  0  0  0
    8.8674    8.0174    8.1681 H   0  0  0  0  0  0  0  0  0  0  0  0
    9.2513    6.7420    7.3382 H   0  0  0  0  0  0  0  0  0  0  0  0
    7.2831    6.7439    7.9088 C   0  0  2  0  0  0  0  0  0  0  0  0
    6.9922    7.1032    7.0562 H   0  0  0  0  0  0  0  0  0  0  0  0
    6.7676    7.1771    8.6068 H   0  0  0  0  0  0  0  0  0  0  0  0
    7.0103    5.2459    7.9407 C   0  0  2  0  0  0  0  0  0  0  0  0
    6.0539    5.0926    7.8902 H   0  0  0  0  0  0  0  0  0  0  0  0
    7.4217    4.8281    7.1679 H   0  0  0  0  0  0  0  0  0  0  0  0
    4.5057    2.4070   11.4260 C   0  0  1  0  0  0  0  0  0  0  0  0
    4.9468    1.6382   11.8442 H   0  0  0  0  0  0  0  0  0  0  0  0
    2.3287    1.1790   11.5131 C   0  0  2  0  0  0  0  0  0  0  0  0
    1.5589    0.9199   10.9831 H   0  0  0  0  0  0  0  0  0  0  0  0
    2.7333    0.3714   11.8669 H   0  0  0  0  0  0  0  0  0  0  0  0
    1.8736    2.0504   12.6580 C   0  0  1  0  0  0  0  0  0  0  0  0
    1.3502    2.7888   12.3109 H   0  0  0  0  0  0  0  0  0  0  0  0
    1.3062    1.5319   13.2497 H   0  0  0  0  0  0  0  0  0  0  0  0
    7.7831    0.3030    9.5476 S   0  0  2  0  0  0  0  0  0  0  0  0
    7.5009   -1.0861    9.7975 O   0  0  0  0  0  0  0  0  0  0  0  0
    6.5155    1.1175   10.0448 N   0  0  0  0  0  0  0  0  0  0  0  0
    3.0462    2.5903   13.4366 C   0  0  2  0  0  0  0  0  0  0  0  0
    3.5073    1.8573   13.8735 H   0  0  0  0  0  0  0  0  0  0  0  0
    2.7243    3.1941   14.1241 H   0  0  0  0  0  0  0  0  0  0  0  0
    4.0227    3.3324   12.5288 C   0  0  2  0  0  0  0  0  0  0  0  0
    3.5840    4.1047   12.1388 H   0  0  0  0  0  0  0  0  0  0  0  0
    4.7796    3.6446   13.0488 H   0  0  0  0  0  0  0  0  0  0  0  0
    9.1419    0.7566   10.5802 C   0  0  0  0  0  0  0  0  0  0  0  0
    9.0693    0.5728   11.9525 C   0  0  0  0  0  0  0  0  0  0  0  0
    8.2956    0.2309   12.3390 H   0  0  0  0  0  0  0  0  0  0  0  0
   10.1580    0.9016   12.7438 C   0  0  0  0  0  0  0  0  0  0  0  0
   10.1026    0.7766   13.6637 H   0  0  0  0  0  0  0  0  0  0  0  0
   11.3193    1.4083   12.2058 C   0  0  0  0  0  0  0  0  0  0  0  0
   12.5092    1.7494   13.0682 C   0  0  2  0  0  0  0  0  0  0  0  0
   12.7289    2.6773   12.9586 H   0  0  0  0  0  0  0  0  0  0  0  0
   13.2591    1.2098   12.8076 H   0  0  0  0  0  0  0  0  0  0  0  0
   12.2967    1.5778   13.9891 H   0  0  0  0  0  0  0  0  0  0  0  0
   11.3675    1.5897   10.8315 C   0  0  0  0  0  0  0  0  0  0  0  0
   12.1397    1.9359   10.4457 H   0  0  0  0  0  0  0  0  0  0  0  0
   10.2963    1.2681   10.0237 C   0  0  0  0  0  0  0  0  0  0  0  0
   10.3524    1.3960    9.1043 H   0  0  0  0  0  0  0  0  0  0  0  0
    3.3349    1.8972   10.6220 C   0  0  2  0  0  0  0  0  0  0  0  0
    3.6541    1.2866    9.9391 H   0  0  0  0  0  0  0  0  0  0  0  0
    2.8993    2.6419   10.1788 H   0  0  0  0  0  0  0  0  0  0  0  0
    6.4693    2.4548    9.9354 C   0  0  0  0  0  0  0  0  0  0  0  0
  1 31  2  0
  2 23  1  0
  3  2  1  0
  4  6  1  0
  4  8  1  0
  4  5  1  1
  6 57  1  0
  7  6  1  0
  8 11  1  0
  8 10  1  1
  9  8  1  0
 11 13  1  1
 11 12  1  0
 14 15  1  1
 14 11  1  0
 16 14  1  0
 17 20  1  0
 17 14  1  0
 17 19  1  1
 18 17  1  0
 20  4  1  0
 20 21  1  6
 22 20  1  0
 23 24  1  1
 23 37  1  0
 25 27  1  1
 25 28  1  0
 26 25  1  0
 28 30  1  1
 28 34  1  0
 29 28  1  0
 31 32  2  0
 31 33  1  1
 31 40  1  0
 34 35  1  1
 34 36  1  0
 37 39  1  1
 37 34  1  0
 38 37  1  0
 40 41  2  0
 41 42  1  0
 41 43  1  0
 43 44  1  0
 45 43  2  0
 45 46  1  0
 46 49  1  1
 47 46  1  0
 48 46  1  0
 50 45  1  0
 51 50  1  0
 52 40  1  0
 52 50  2  0
 53 52  1  0
 54 23  1  0
 54 25  1  0
 54 55  1  6
 56 54  1  0
 57 33  2  0
 57  2  1  0
M  END
$$$$
