out_1003503
     RDKit          3D

 23 24  0  0  1  0  0  0  0  0999 V2000
   -8.5635    0.2101   13.5432 C   0  0  0  0  0  0  0  0  0  0  0  0
   -9.8909    0.0778   13.8216 C   0  0  0  0  0  0  0  0  0  0  0  0
  -10.5226    0.0845   13.1129 H   0  0  0  0  0  0  0  0  0  0  0  0
  -10.3468   -0.0778   15.1754 C   0  0  0  0  0  0  0  0  0  0  0  0
  -11.2754   -0.0950   15.3750 H   0  0  0  0  0  0  0  0  0  0  0  0
   -9.4075   -0.2023   16.1900 C   0  0  0  0  0  0  0  0  0  0  0  0
   -9.6852   -0.4841   17.0522 H   0  0  0  0  0  0  0  0  0  0  0  0
   -8.0479    0.0856   15.9640 C   0  0  0  0  0  0  0  0  0  0  0  0
   -7.6838    0.1089   14.5688 C   0  0  0  0  0  0  0  0  0  0  0  0
   -6.2456   -0.0233   14.3124 C   0  0  0  0  0  0  0  0  0  0  0  0
   -5.9141   -0.1438   13.4317 H   0  0  0  0  0  0  0  0  0  0  0  0
   -5.3460    0.0311   15.4484 C   0  0  0  0  0  0  0  0  0  0  0  0
   -4.4176    0.1651   15.2939 H   0  0  0  0  0  0  0  0  0  0  0  0
   -5.7828   -0.0934   16.7167 C   0  0  0  0  0  0  0  0  0  0  0  0
   -5.1611   -0.2729   17.4115 H   0  0  0  0  0  0  0  0  0  0  0  0
   -7.0476    0.0311   16.9979 C   0  0  0  0  0  0  0  0  0  0  0  0
   -7.3196    0.0918   17.9081 H   0  0  0  0  0  0  0  0  0  0  0  0
   -8.1438    0.4279   12.1784 C   0  0  0  0  0  0  0  0  0  0  0  0
   -8.8799   -0.2723   11.0479 C   0  0  1  0  0  0  0  0  0  0  0  0
   -9.5237   -0.9094   11.4247 H   0  0  0  0  0  0  0  0  0  0  0  0
   -9.3552    0.3912   10.5075 H   0  0  0  0  0  0  0  0  0  0  0  0
   -8.2361   -0.7526   10.4873 H   0  0  0  0  0  0  0  0  0  0  0  0
   -7.3048    1.2526   11.8723 O   0  0  0  0  0  0  0  0  0  0  0  0
  1  2  2  0
  1  9  1  0
  2  4  1  0
  3  2  1  0
  4  5  1  0
  4  6  2  0
  6  7  1  0
  8  6  1  0
  8 16  1  0
  9  8  2  0
 10  9  1  0
 10 12  2  0
 11 10  1  0
 12 14  1  0
 13 12  1  0
 14 16  2  0
 14 15  1  0
 16 17  1  0
 18  1  1  0
 19 20  1  1
 19 18  1  0
 21 19  1  0
 22 19  1  0
 23 18  2  0
M  END
$$$$
