out_411302
     RDKit          3D

 14 14  0  0  0  0  0  0  0  0999 V2000
   11.3168   -5.1340    0.5551 O   0  0  0  0  0  0  0  0  0  0  0  0
   12.7418   -3.7538   -0.2754 O   0  0  0  0  0  0  0  0  0  0  0  0
   12.4345   -4.7300    0.3844 N   0  0  0  0  0  0  0  0  0  0  0  0
   13.5685   -5.5200    0.9797 C   0  0  0  0  0  0  0  0  0  0  0  0
   14.8469   -5.0803    0.8262 C   0  0  0  0  0  0  0  0  0  0  0  0
   15.8701   -5.8275    1.3884 C   0  0  0  0  0  0  0  0  0  0  0  0
   15.5715   -6.9910    2.0382 C   0  0  0  0  0  0  0  0  0  0  0  0
   14.3008   -7.4001    2.1931 C   0  0  0  0  0  0  0  0  0  0  0  0
   13.2790   -6.6716    1.6351 C   0  0  0  0  0  0  0  0  0  0  0  0
   15.0242   -4.2337    0.3285 H   0  0  0  0  0  0  0  0  0  0  0  0
   16.7841   -5.5097    1.3511 H   0  0  0  0  0  0  0  0  0  0  0  0
   16.2877   -7.5264    2.3968 H   0  0  0  0  0  0  0  0  0  0  0  0
   14.1222   -8.2350    2.6908 H   0  0  0  0  0  0  0  0  0  0  0  0
   12.3441   -6.9478    1.7155 H   0  0  0  0  0  0  0  0  0  0  0  0
  2  3  1  0
  3  1  2  0
  3  4  1  0
  4  9  2  0
  5  4  1  0
  5  6  2  0
  6  7  1  0
  7  8  2  0
  7 12  1  0
  8 13  1  0
  9 14  1  0
  9  8  1  0
 10  5  1  0
 11  6  1  0
M  CHG  2   2  -1   3   1
M  END
$$$$
