out_1978474
     RDKit          3D

 56 59  0  0  1  0  0  0  0  0999 V2000
    9.5332    2.6066    9.5804 S   0  0  1  0  0  0  0  0  0  0  0  0
    7.8353    2.0150   13.0864 S   0  0  0  0  0  0  0  0  0  0  0  0
   10.0468    1.3549   10.0471 O   0  0  0  0  0  0  0  0  0  0  0  0
    8.3265    2.6397    8.8240 O   0  0  0  0  0  0  0  0  0  0  0  0
   11.3342    3.4345   11.6501 O   0  0  0  0  0  0  0  0  0  0  0  0
   11.1399    5.9191   14.0497 O   0  0  0  0  0  0  0  0  0  0  0  0
   11.5811    3.8059   14.6647 O   0  0  0  0  0  0  0  0  0  0  0  0
    9.1941    3.5890   10.9197 N   0  0  0  0  0  0  0  0  0  0  0  0
   10.7958    3.4234    8.6769 C   0  0  0  0  0  0  0  0  0  0  0  0
   10.4732    4.5642    7.9416 C   0  0  0  0  0  0  0  0  0  0  0  0
    9.5842    4.8992    7.9269 H   0  0  0  0  0  0  0  0  0  0  0  0
   11.4757    5.1928    7.2405 C   0  0  0  0  0  0  0  0  0  0  0  0
   11.2634    5.9732    6.7430 H   0  0  0  0  0  0  0  0  0  0  0  0
   12.7762    4.7392    7.2307 C   0  0  0  0  0  0  0  0  0  0  0  0
   13.0709    3.5851    7.9710 C   0  0  0  0  0  0  0  0  0  0  0  0
   13.9582    3.2452    7.9734 H   0  0  0  0  0  0  0  0  0  0  0  0
   12.0898    2.9328    8.7014 C   0  0  0  0  0  0  0  0  0  0  0  0
   12.3038    2.1607    9.2112 H   0  0  0  0  0  0  0  0  0  0  0  0
   13.8545    5.4782    6.5028 C   0  0  2  0  0  0  0  0  0  0  0  0
   14.1508    4.9494    5.7331 H   0  0  0  0  0  0  0  0  0  0  0  0
   14.6118    5.6283    7.1057 H   0  0  0  0  0  0  0  0  0  0  0  0
   13.5072    6.3408    6.1939 H   0  0  0  0  0  0  0  0  0  0  0  0
    7.8195    3.9637   11.1746 C   0  0  0  0  0  0  0  0  0  0  0  0
    7.0738    3.3142   12.1452 C   0  0  0  0  0  0  0  0  0  0  0  0
    5.7667    3.6834   12.3707 C   0  0  0  0  0  0  0  0  0  0  0  0
    5.2580    3.2397   13.0399 H   0  0  0  0  0  0  0  0  0  0  0  0
    5.1856    4.7016   11.6256 C   0  0  0  0  0  0  0  0  0  0  0  0
    4.2752    4.9345   11.7628 H   0  0  0  0  0  0  0  0  0  0  0  0
    5.9379    5.3750   10.6794 C   0  0  0  0  0  0  0  0  0  0  0  0
    5.5477    6.0819   10.1794 H   0  0  0  0  0  0  0  0  0  0  0  0
    7.2532    5.0228   10.4613 C   0  0  0  0  0  0  0  0  0  0  0  0
    7.7734    5.4997    9.8265 H   0  0  0  0  0  0  0  0  0  0  0  0
   10.1900    3.7071   11.9050 C   0  0  0  0  0  0  0  0  0  0  0  0
    9.7061    4.1370   13.2629 C   0  0  1  0  0  0  0  0  0  0  0  0
    9.0015    4.8385   13.1502 H   0  0  0  0  0  0  0  0  0  0  0  0
    9.1085    2.9466   14.0399 C   0  0  1  0  0  0  0  0  0  0  0  0
    9.8641    2.3075   14.1845 H   0  0  0  0  0  0  0  0  0  0  0  0
   10.8880    4.7381   14.0129 C   0  0  0  0  0  0  0  0  0  0  0  0
   12.7268    4.2507   15.4444 C   0  0  2  0  0  0  0  0  0  0  0  0
   12.4832    5.0306   16.0032 H   0  0  0  0  0  0  0  0  0  0  0  0
   13.4726    4.5096   14.8463 H   0  0  0  0  0  0  0  0  0  0  0  0
   13.1219    3.0978   16.3023 C   0  0  2  0  0  0  0  0  0  0  0  0
   13.2882    2.3136   15.7385 H   0  0  0  0  0  0  0  0  0  0  0  0
   12.4009    2.8986   16.9346 H   0  0  0  0  0  0  0  0  0  0  0  0
   13.9368    3.3235   16.7949 H   0  0  0  0  0  0  0  0  0  0  0  0
    8.6261    3.3280   15.4101 C   0  0  0  0  0  0  0  0  0  0  0  0
    8.9258    2.4791   16.4812 C   0  0  0  0  0  0  0  0  0  0  0  0
    9.4377    1.6927   16.3366 H   0  0  0  0  0  0  0  0  0  0  0  0
    8.4780    2.7810   17.7460 C   0  0  0  0  0  0  0  0  0  0  0  0
    8.6772    2.1916   18.4617 H   0  0  0  0  0  0  0  0  0  0  0  0
    7.7438    3.9290   17.9935 C   0  0  0  0  0  0  0  0  0  0  0  0
    7.4475    4.1343   18.8710 H   0  0  0  0  0  0  0  0  0  0  0  0
    7.4475    4.7750   16.9297 C   0  0  0  0  0  0  0  0  0  0  0  0
    6.9454    5.5670   17.0842 H   0  0  0  0  0  0  0  0  0  0  0  0
    7.8755    4.4731   15.6576 C   0  0  0  0  0  0  0  0  0  0  0  0
    7.6549    5.0543   14.9395 H   0  0  0  0  0  0  0  0  0  0  0  0
  1  3  2  0
  1  8  1  1
  2 36  1  0
  4  1  2  0
  5 33  2  0
  7 39  1  0
  8 23  1  0
  8 33  1  0
  9 17  1  0
  9  1  1  0
 10  9  2  0
 11 10  1  0
 12 10  1  0
 13 12  1  0
 14 12  2  0
 14 15  1  0
 15 16  1  0
 15 17  2  0
 17 18  1  0
 19 21  1  1
 19 14  1  0
 20 19  1  0
 22 19  1  0
 23 24  2  0
 24 25  1  0
 24  2  1  0
 25 26  1  0
 27 28  1  0
 27 25  2  0
 29 27  1  0
 30 29  1  0
 31 29  2  0
 31 23  1  0
 32 31  1  0
 33 34  1  0
 34 35  1  6
 34 38  1  0
 34 36  1  0
 36 37  1  1
 36 46  1  0
 38  6  2  0
 38  7  1  0
 39 40  1  1
 39 42  1  0
 41 39  1  0
 42 45  1  1
 42 44  1  0
 43 42  1  0
 46 55  1  0
 46 47  2  0
 47 49  1  0
 48 47  1  0
 49 51  2  0
 49 50  1  0
 51 52  1  0
 53 54  1  0
 53 51  1  0
 55 53  2  0
 56 55  1  0
M  END
$$$$
