out_1378477
     RDKit          3D

 20 20  0  0  0  0  0  0  0  0999 V2000
    3.8609    2.8340    7.3482 C   0  0  0  0  0  0  0  0  0  0  0  0
    4.1520    3.4395    8.5827 C   0  0  0  0  0  0  0  0  0  0  0  0
    3.6015    4.1420    8.9082 H   0  0  0  0  0  0  0  0  0  0  0  0
    5.2380    3.0142    9.3233 C   0  0  0  0  0  0  0  0  0  0  0  0
    6.0597    1.9844    8.8226 C   0  0  0  0  0  0  0  0  0  0  0  0
    5.7726    1.4077    7.5935 C   0  0  0  0  0  0  0  0  0  0  0  0
    6.3372    0.7240    7.2524 H   0  0  0  0  0  0  0  0  0  0  0  0
    4.6709    1.8179    6.8571 C   0  0  0  0  0  0  0  0  0  0  0  0
    4.4721    1.4073    6.0237 H   0  0  0  0  0  0  0  0  0  0  0  0
    2.6531    3.2832    6.6345 C   0  0  0  0  0  0  0  0  0  0  0  0
    4.8005    4.5514   11.0891 C   0  0  2  0  0  0  0  0  0  0  0  0
    4.8790    5.3359   10.5070 H   0  0  0  0  0  0  0  0  0  0  0  0
    5.1240    4.7766   11.9863 H   0  0  0  0  0  0  0  0  0  0  0  0
    3.8617    4.2751   11.1400 H   0  0  0  0  0  0  0  0  0  0  0  0
    2.4430    2.7053    5.4646 O   0  0  0  0  0  0  0  0  0  0  0  0
    1.7113    3.1038    5.1115 H   0  0  0  0  0  0  0  0  0  0  0  0
    1.8953    4.1278    7.0954 O   0  0  0  0  0  0  0  0  0  0  0  0
    5.5804    3.4861   10.5570 O   0  0  0  0  0  0  0  0  0  0  0  0
    7.0855    1.5874    9.6057 O   0  0  0  0  0  0  0  0  0  0  0  0
    7.5389    0.8945    9.2645 H   0  0  0  0  0  0  0  0  0  0  0  0
  1  2  2  0
  2  3  1  0
  2  4  1  0
  4 18  1  0
  5  4  2  0
  5 19  1  0
  6  5  1  0
  7  6  1  0
  8  1  1  0
  8  6  2  0
  9  8  1  0
 10 17  2  0
 10  1  1  0
 11 14  1  1
 11 13  1  0
 12 11  1  0
 15 10  1  0
 16 15  1  0
 18 11  1  0
 20 19  1  0
M  END
$$$$
