out_1017967
     RDKit          3D

 57 60  0  0  1  0  0  0  0  0999 V2000
   -6.2745   13.1746    3.4827 S   0  0  1  0  0  0  0  0  0  0  0  0
   -6.0718   12.3450    4.6204 O   0  0  0  0  0  0  0  0  0  0  0  0
   -6.5786   12.2102    2.2237 N   0  0  0  0  0  0  0  0  0  0  0  0
   -7.7604   14.1048    3.7598 C   0  0  0  0  0  0  0  0  0  0  0  0
   -4.3613   11.5967    0.3873 C   0  0  0  0  0  0  0  0  0  0  0  0
   -4.1628   11.6197    1.2960 H   0  0  0  0  0  0  0  0  0  0  0  0
   -5.5723   12.0859   -0.0516 C   0  0  0  0  0  0  0  0  0  0  0  0
   -8.6765   13.6527    4.6790 C   0  0  0  0  0  0  0  0  0  0  0  0
   -8.4968   12.8904    5.1809 H   0  0  0  0  0  0  0  0  0  0  0  0
   -5.2749   14.1179    3.0833 O   0  0  0  0  0  0  0  0  0  0  0  0
   -9.6833   10.7157    3.5899 O   0  0  0  0  0  0  0  0  0  0  0  0
   -8.0035   15.2452    3.0267 C   0  0  0  0  0  0  0  0  0  0  0  0
   -7.3697   15.5558    2.4209 H   0  0  0  0  0  0  0  0  0  0  0  0
  -10.0953   15.4523    4.0925 C   0  0  0  0  0  0  0  0  0  0  0  0
   -5.8616   12.0056   -1.3975 C   0  0  0  0  0  0  0  0  0  0  0  0
   -6.6882   12.2906   -1.7145 H   0  0  0  0  0  0  0  0  0  0  0  0
  -12.1616   15.7257    5.0785 O   0  0  0  0  0  0  0  0  0  0  0  0
   -8.4152    8.8768    1.8850 C   0  0  0  0  0  0  0  0  0  0  0  0
   -9.8633   14.3340    4.8570 C   0  0  0  0  0  0  0  0  0  0  0  0
  -10.4905   14.0430    5.4780 H   0  0  0  0  0  0  0  0  0  0  0  0
   -6.9505   10.7920    2.3946 C   0  0  2  0  0  0  0  0  0  0  0  0
   -7.0428   10.6093    3.3427 H   0  0  0  0  0  0  0  0  0  0  0  0
   -6.2269   10.2405    2.0593 H   0  0  0  0  0  0  0  0  0  0  0  0
   -9.1988   15.9278    3.1965 C   0  0  0  0  0  0  0  0  0  0  0  0
   -9.3819   16.6957    2.7047 H   0  0  0  0  0  0  0  0  0  0  0  0
   -9.3072    8.4156    2.8305 C   0  0  0  0  0  0  0  0  0  0  0  0
   -6.5542   12.7689    0.8707 C   0  0  2  0  0  0  0  0  0  0  0  0
   -6.3278   13.7107    0.9259 H   0  0  0  0  0  0  0  0  0  0  0  0
   -7.4425   12.7012    0.4883 H   0  0  0  0  0  0  0  0  0  0  0  0
  -11.3628   16.1788    4.2836 N   0  0  0  0  0  0  0  0  0  0  0  0
  -11.5365   17.1844    3.6304 O   0  0  0  0  0  0  0  0  0  0  0  0
   -8.2406   10.3788    1.6938 C   0  0  2  0  0  0  0  0  0  0  0  0
   -8.1574   10.5706    0.7364 H   0  0  0  0  0  0  0  0  0  0  0  0
   -3.4359   11.0726   -0.4955 C   0  0  0  0  0  0  0  0  0  0  0  0
   -2.6260   10.7445   -0.1789 H   0  0  0  0  0  0  0  0  0  0  0  0
   -3.7082   11.0355   -1.8223 C   0  0  0  0  0  0  0  0  0  0  0  0
   -3.0810   10.6986   -2.4197 H   0  0  0  0  0  0  0  0  0  0  0  0
   -4.9143   11.4980   -2.2783 C   0  0  0  0  0  0  0  0  0  0  0  0
   -5.1023   11.4716   -3.1885 H   0  0  0  0  0  0  0  0  0  0  0  0
   -9.4421   11.1483    2.2541 C   0  0  1  0  0  0  0  0  0  0  0  0
   -9.2175   12.1019    2.2745 H   0  0  0  0  0  0  0  0  0  0  0  0
   -7.6591    7.9659    1.1548 C   0  0  0  0  0  0  0  0  0  0  0  0
   -7.0560    8.2673    0.5147 H   0  0  0  0  0  0  0  0  0  0  0  0
   -8.7009    6.1504    2.2895 C   0  0  0  0  0  0  0  0  0  0  0  0
   -8.8066    5.2366    2.4219 H   0  0  0  0  0  0  0  0  0  0  0  0
   -9.4599    7.0348    3.0186 C   0  0  0  0  0  0  0  0  0  0  0  0
  -10.0746    6.7145    3.6384 H   0  0  0  0  0  0  0  0  0  0  0  0
  -10.1401    9.3704    3.6415 C   0  0  2  0  0  0  0  0  0  0  0  0
  -11.0547    9.3366    3.3203 H   0  0  0  0  0  0  0  0  0  0  0  0
  -10.1417    9.0746    4.5656 H   0  0  0  0  0  0  0  0  0  0  0  0
  -10.6513   10.9742    1.4299 C   0  0  0  0  0  0  0  0  0  0  0  0
  -11.0634   10.1563    1.5959 H   0  0  0  0  0  0  0  0  0  0  0  0
   -7.8055    6.5957    1.3824 C   0  0  0  0  0  0  0  0  0  0  0  0
   -7.2854    5.9871    0.9079 H   0  0  0  0  0  0  0  0  0  0  0  0
  -11.2384   11.5970    0.6118 C   0  0  0  0  0  0  0  0  0  0  0  0
  -10.9290   12.4349    0.3550 H   0  0  0  0  0  0  0  0  0  0  0  0
  -12.0097   11.2474    0.2260 H   0  0  0  0  0  0  0  0  0  0  0  0
  1  4  1  0
  1  2  2  0
  3 21  1  0
  1  3  1  6
  4  8  2  0
  5  6  1  0
  7  5  2  0
  7 27  1  0
  8 19  1  0
  8  9  1  0
 10  1  2  0
 11 48  1  0
 12 24  2  0
 12  4  1  0
 13 12  1  0
 14 30  1  0
 14 19  2  0
 15  7  1  0
 16 15  1  0
 18 26  2  0
 19 20  1  0
 21 22  1  1
 23 21  1  0
 24 14  1  0
 25 24  1  0
 26 46  1  0
 26 48  1  0
 27 28  1  1
 27  3  1  0
 29 27  1  0
 30 17  1  0
 31 30  2  0
 32 33  1  6
 32 18  1  0
 32 40  1  0
 32 21  1  0
 34 35  1  0
 34  5  1  0
 36 34  2  0
 37 36  1  0
 38 36  1  0
 38 15  2  0
 39 38  1  0
 40 41  1  1
 40 11  1  0
 42 53  2  0
 42 18  1  0
 43 42  1  0
 44 45  1  0
 44 46  2  0
 46 47  1  0
 48 50  1  1
 49 48  1  0
 51 52  1  0
 51 40  1  0
 53 44  1  0
 54 53  1  0
 55 51  2  0
 56 55  1  0
 57 55  1  0
M  CHG  2  17  -1  30   1
M  END
$$$$
