out_1013269
     RDKit          3D

 37 38  0  0  0  0  0  0  0  0999 V2000
    0.8641    5.9590   16.4207 S   0  0  0  0  0  0  0  0  0  0  0  0
    2.1375    7.6944    3.1348 S   0  0  0  0  0  0  0  0  0  0  0  0
   -0.6012    9.8165   11.1970 O   0  0  0  0  0  0  0  0  0  0  0  0
   -0.2313   10.2127    8.8163 O   0  0  0  0  0  0  0  0  0  0  0  0
   -0.5138   10.3181    9.5789 H   0  0  0  0  0  0  0  0  0  0  0  0
    1.5967    4.3578   16.0909 C   0  0  2  0  0  0  0  0  0  0  0  0
    1.0120    3.8487   15.5244 H   0  0  0  0  0  0  0  0  0  0  0  0
    1.7280    3.8891   16.9184 H   0  0  0  0  0  0  0  0  0  0  0  0
    2.4427    4.4767   15.6529 H   0  0  0  0  0  0  0  0  0  0  0  0
    0.6253    6.6392   14.8256 C   0  0  0  0  0  0  0  0  0  0  0  0
   -0.0024    7.8835   14.7751 C   0  0  0  0  0  0  0  0  0  0  0  0
   -0.2854    8.2917   15.5619 H   0  0  0  0  0  0  0  0  0  0  0  0
   -0.2068    8.5164   13.5594 C   0  0  0  0  0  0  0  0  0  0  0  0
   -0.6389    9.3395   13.5423 H   0  0  0  0  0  0  0  0  0  0  0  0
    0.2163    7.9507   12.3711 C   0  0  0  0  0  0  0  0  0  0  0  0
    0.8266    6.6927   12.4193 C   0  0  0  0  0  0  0  0  0  0  0  0
    1.1007    6.2857   11.6294 H   0  0  0  0  0  0  0  0  0  0  0  0
    1.0275    6.0450   13.6259 C   0  0  0  0  0  0  0  0  0  0  0  0
    1.4332    5.2088   13.6384 H   0  0  0  0  0  0  0  0  0  0  0  0
    0.0284    8.7020   11.1062 C   0  0  0  0  0  0  0  0  0  0  0  0
    0.5167    8.2660    9.8675 C   0  0  0  0  0  0  0  0  0  0  0  0
    0.9358    7.4378    9.8045 H   0  0  0  0  0  0  0  0  0  0  0  0
    0.3825    9.0549    8.7330 C   0  0  0  0  0  0  0  0  0  0  0  0
    0.8731    8.6975    7.4025 C   0  0  0  0  0  0  0  0  0  0  0  0
    0.6288    9.5592    6.3247 C   0  0  0  0  0  0  0  0  0  0  0  0
    0.1925   10.3672    6.4742 H   0  0  0  0  0  0  0  0  0  0  0  0
    1.0247    9.2291    5.0487 C   0  0  0  0  0  0  0  0  0  0  0  0
    0.8506    9.8142    4.3468 H   0  0  0  0  0  0  0  0  0  0  0  0
    1.6843    8.0258    4.7965 C   0  0  0  0  0  0  0  0  0  0  0  0
    1.9590    7.1720    5.8719 C   0  0  0  0  0  0  0  0  0  0  0  0
    2.4153    6.3752    5.7251 H   0  0  0  0  0  0  0  0  0  0  0  0
    1.5564    7.5078    7.1477 C   0  0  0  0  0  0  0  0  0  0  0  0
    1.7438    6.9301    7.8519 H   0  0  0  0  0  0  0  0  0  0  0  0
    2.8626    6.0529    3.2322 C   0  0  2  0  0  0  0  0  0  0  0  0
    3.1083    5.7589    2.3519 H   0  0  0  0  0  0  0  0  0  0  0  0
    2.2234    5.4423    3.6065 H   0  0  0  0  0  0  0  0  0  0  0  0
    3.6435    6.0806    3.7898 H   0  0  0  0  0  0  0  0  0  0  0  0
  2 34  1  0
  2 29  1  0
  4  5  1  0
  6  1  1  0
  6  8  1  1
  7  6  1  0
  9  6  1  0
 10  1  1  0
 11 10  2  0
 11 12  1  0
 13 11  1  0
 14 13  1  0
 15 16  1  0
 15 13  2  0
 16 18  2  0
 17 16  1  0
 18 19  1  0
 18 10  1  0
 20  3  2  0
 20 15  1  0
 21 20  1  0
 22 21  1  0
 23  4  1  0
 23 21  2  0
 24 23  1  0
 25 26  1  0
 25 24  2  0
 27 25  1  0
 28 27  1  0
 29 27  2  0
 29 30  1  0
 30 32  2  0
 31 30  1  0
 32 24  1  0
 32 33  1  0
 34 36  1  1
 34 37  1  0
 35 34  1  0
M  END
$$$$
