out_1784846
     RDKit          3D

 39 43  0  0  1  0  0  0  0  0999 V2000
    1.2347    1.1717    9.6661 O   0  0  0  0  0  0  0  0  0  0  0  0
    3.2345   -1.0171    9.7310 O   0  0  0  0  0  0  0  0  0  0  0  0
    3.0612    2.2952   13.2649 O   0  0  0  0  0  0  0  0  0  0  0  0
    1.0816    3.0318   13.9340 O   0  0  0  0  0  0  0  0  0  0  0  0
    1.1094   -0.0717   10.4201 C   0  0  2  0  0  0  0  0  0  0  0  0
   -0.3684   -0.4092   10.5898 C   0  0  2  0  0  0  0  0  0  0  0  0
   -1.1242    0.7971   11.1407 C   0  0  2  0  0  0  0  0  0  0  0  0
   -0.3815    1.5344   12.2622 C   0  0  2  0  0  0  0  0  0  0  0  0
    1.1227    1.6779   11.9797 C   0  0  2  0  0  0  0  0  0  0  0  0
    1.7122    0.2837   11.7621 C   0  0  2  0  0  0  0  0  0  0  0  0
    1.8748    2.3652   13.1099 C   0  0  0  0  0  0  0  0  0  0  0  0
    1.8212   -1.1724    9.6624 C   0  0  1  0  0  0  0  0  0  0  0  0
    1.3914    2.3053   10.5773 C   0  0  1  0  0  0  0  0  0  0  0  0
    2.7434    2.9498   10.3429 C   0  0  2  0  0  0  0  0  0  0  0  0
    2.5830    4.4321   10.5397 C   0  0  2  0  0  0  0  0  0  0  0  0
    1.1329    4.6693   10.9140 C   0  0  1  0  0  0  0  0  0  0  0  0
    0.5357    3.5100   10.1099 C   0  0  1  0  0  0  0  0  0  0  0  0
    1.1245    3.7793    8.7158 C   0  0  1  0  0  0  0  0  0  0  0  0
    2.5661    3.8487    9.1366 C   0  0  2  0  0  0  0  0  0  0  0  0
    3.6604   -1.1219    9.0109 H   0  0  0  0  0  0  0  0  0  0  0  0
    1.5346    3.3978   14.5694 H   0  0  0  0  0  0  0  0  0  0  0  0
   -0.4488   -1.2320   11.2333 H   0  0  0  0  0  0  0  0  0  0  0  0
   -0.6468   -0.6796    9.7021 H   0  0  0  0  0  0  0  0  0  0  0  0
   -1.9502    0.4990   11.4711 H   0  0  0  0  0  0  0  0  0  0  0  0
   -1.2725    1.4927   10.3419 H   0  0  0  0  0  0  0  0  0  0  0  0
   -0.5111    0.9937   13.0724 H   0  0  0  0  0  0  0  0  0  0  0  0
   -0.6441    2.4618   12.4924 H   0  0  0  0  0  0  0  0  0  0  0  0
    2.7012    0.3002   11.6866 H   0  0  0  0  0  0  0  0  0  0  0  0
    1.5006   -0.3409   12.4822 H   0  0  0  0  0  0  0  0  0  0  0  0
    1.5093   -1.1518    8.7406 H   0  0  0  0  0  0  0  0  0  0  0  0
    1.6157   -2.1178   10.0733 H   0  0  0  0  0  0  0  0  0  0  0  0
    3.6188    2.4821   10.4805 H   0  0  0  0  0  0  0  0  0  0  0  0
    3.1812    5.1705   10.8021 H   0  0  0  0  0  0  0  0  0  0  0  0
    0.9709    4.5988   11.9638 H   0  0  0  0  0  0  0  0  0  0  0  0
    0.8373    5.5498   10.6208 H   0  0  0  0  0  0  0  0  0  0  0  0
   -0.5105    3.3380   10.1418 H   0  0  0  0  0  0  0  0  0  0  0  0
    0.9816    3.0463    8.0905 H   0  0  0  0  0  0  0  0  0  0  0  0
    0.7699    4.5379    8.3180 H   0  0  0  0  0  0  0  0  0  0  0  0
    3.2625    4.0496    8.4754 H   0  0  0  0  0  0  0  0  0  0  0  0
  5  1  1  6
  4 21  1  0
  5 12  1  0
  5  6  1  0
  5 10  1  0
  6  7  1  0
  6 22  1  1
  7 24  1  1
  7  8  1  0
  8 27  1  1
  8 26  1  0
  9  8  1  0
  9 11  1  1
 10  9  1  0
 10 29  1  1
 11  3  2  0
 11  4  1  0
 12  2  1  0
 12 31  1  1
 13  1  1  6
 13  9  1  0
 14 32  1  6
 14 15  1  0
 14 13  1  0
 15 33  1  6
 15 16  1  0
 16 34  1  1
 17 36  1  6
 17 13  1  0
 17 16  1  0
 18 19  1  0
 18 17  1  0
 19 39  1  6
 19 14  1  0
 19 15  1  0
 20  2  1  0
 23  6  1  0
 25  7  1  0
 28 10  1  0
 30 12  1  0
 35 16  1  0
 18 37  1  6
 38 18  1  0
M  END
$$$$
