out_1378476
     RDKit          3D

 29 29  0  0  0  0  0  0  0  0999 V2000
    9.5596   -2.2768    7.8522 C   0  0  0  0  0  0  0  0  0  0  0  0
    8.4038   -1.5633    7.8523 C   0  0  0  0  0  0  0  0  0  0  0  0
    7.7107   -1.6367    7.2068 H   0  0  0  0  0  0  0  0  0  0  0  0
    9.5446   -0.9350    9.5724 C   0  0  0  0  0  0  0  0  0  0  0  0
    9.9179   -0.2265   10.8240 C   0  0  2  0  0  0  0  0  0  0  0  0
    9.4104    0.6093   10.8901 H   0  0  0  0  0  0  0  0  0  0  0  0
   10.8771   -0.0263   10.8124 H   0  0  0  0  0  0  0  0  0  0  0  0
    9.7122   -0.7954   11.5951 H   0  0  0  0  0  0  0  0  0  0  0  0
   11.6397   -2.3203    9.3694 C   0  0  1  0  0  0  0  0  0  0  0  0
   12.0517   -1.6288    9.9459 H   0  0  0  0  0  0  0  0  0  0  0  0
   12.2109   -2.4324    8.5687 H   0  0  0  0  0  0  0  0  0  0  0  0
   11.5667   -3.6363   10.1290 C   0  0  2  0  0  0  0  0  0  0  0  0
   11.0667   -4.3005    9.5913 H   0  0  0  0  0  0  0  0  0  0  0  0
   11.0788   -3.5000   10.9795 H   0  0  0  0  0  0  0  0  0  0  0  0
   13.5995   -5.3604    9.1498 C   0  0  2  0  0  0  0  0  0  0  0  0
   12.9193   -6.0773    9.0915 H   0  0  0  0  0  0  0  0  0  0  0  0
   13.6056   -4.8666    8.2917 H   0  0  0  0  0  0  0  0  0  0  0  0
   14.9732   -5.9679    9.4089 C   0  0  2  0  0  0  0  0  0  0  0  0
   15.6390   -5.2522    9.4791 H   0  0  0  0  0  0  0  0  0  0  0  0
   15.2116   -6.5644    8.6688 H   0  0  0  0  0  0  0  0  0  0  0  0
   14.9524   -6.4778   10.2456 H   0  0  0  0  0  0  0  0  0  0  0  0
   10.2966   -1.8788    8.9566 N   0  0  0  0  0  0  0  0  0  0  0  0
    8.3979   -0.7292    8.9219 N   0  0  0  0  0  0  0  0  0  0  0  0
    9.9859   -3.2449    6.9072 N   0  0  0  0  0  0  0  0  0  0  0  0
    9.2777   -3.3872    5.9121 O   0  0  0  0  0  0  0  0  0  0  0  0
   11.0133   -3.8787    7.1054 O   0  0  0  0  0  0  0  0  0  0  0  0
   13.1311   -5.0139   11.6978 O   0  0  0  0  0  0  0  0  0  0  0  0
   14.1248   -3.1526   10.4325 O   0  0  0  0  0  0  0  0  0  0  0  0
   13.2029   -4.2604   10.4746 S   0  0  2  0  0  0  0  0  0  0  0  0
  1  2  2  0
  1 22  1  0
  2 23  1  0
  3  2  1  0
  4  5  1  0
  5  6  1  1
  5  8  1  0
  7  5  1  0
  9 10  1  1
  9 12  1  0
 11  9  1  0
 29 12  1  6
 12 14  1  1
 13 12  1  0
 15 18  1  0
 15 29  1  0
 15 16  1  6
 17 15  1  0
 18 19  1  1
 18 21  1  0
 20 18  1  0
 22  9  1  0
 22  4  1  0
 23  4  2  0
 24 26  1  0
 24  1  1  0
 25 24  2  0
 28 29  2  0
 29 27  2  0
M  CHG  2  24   1  26  -1
M  END
$$$$
