out_1000986
     RDKit          3D

 56 59  0  0  1  0  0  0  0  0999 V2000
    6.3606    5.7517    8.7814 O   0  0  0  0  0  0  0  0  0  0  0  0
    7.5205    5.4327    8.6985 C   0  0  0  0  0  0  0  0  0  0  0  0
    8.2493    4.6516    9.5885 N   0  0  0  0  0  0  0  0  0  0  0  0
    7.7228    4.0186   10.7159 C   0  0  0  0  0  0  0  0  0  0  0  0
    8.6066    3.2871   11.4107 N   0  0  0  0  0  0  0  0  0  0  0  0
    8.0989    2.6573   12.4788 C   0  0  0  0  0  0  0  0  0  0  0  0
    6.8534    2.6660   12.9246 N   0  0  0  0  0  0  0  0  0  0  0  0
    5.9938    3.4029   12.1990 C   0  0  0  0  0  0  0  0  0  0  0  0
    6.3779    4.1317   11.0794 C   0  0  0  0  0  0  0  0  0  0  0  0
    4.6803    3.3923   12.6517 N   0  0  0  0  0  0  0  0  0  0  0  0
    4.3024    2.6981   13.9121 C   0  0  1  0  0  0  0  0  0  0  0  0
    4.7599    3.4694   15.1605 C   0  0  2  0  0  0  0  0  0  0  0  0
    4.4045    2.6696   16.4135 C   0  0  2  0  0  0  0  0  0  0  0  0
    4.2299    4.9045   15.2308 C   0  0  2  0  0  0  0  0  0  0  0  0
    2.7587    2.5721   13.7695 C   0  0  2  0  0  0  0  0  0  0  0  0
    2.4794    3.2495   12.5328 N   0  0  0  0  0  0  0  0  0  0  0  0
    3.5682    3.6708   11.8631 C   0  0  0  0  0  0  0  0  0  0  0  0
    3.5816    4.1906   10.7674 O   0  0  0  0  0  0  0  0  0  0  0  0
    9.6139    4.3556    9.0926 C   0  0  1  0  0  0  0  0  0  0  0  0
    9.7876    5.3588    7.9316 C   0  0  1  0  0  0  0  0  0  0  0  0
    8.3953    5.7922    7.6814 N   0  0  0  0  0  0  0  0  0  0  0  0
    8.0291    6.4493    6.5105 C   0  0  0  0  0  0  0  0  0  0  0  0
    9.0382    6.6274    5.6320 N   0  0  0  0  0  0  0  0  0  0  0  0
    8.7096    7.2727    4.5100 C   0  0  0  0  0  0  0  0  0  0  0  0
    7.5133    7.7330    4.1470 N   0  0  0  0  0  0  0  0  0  0  0  0
    6.5740    7.5217    5.0428 C   0  0  0  0  0  0  0  0  0  0  0  0
    6.7352    6.8893    6.2641 C   0  0  0  0  0  0  0  0  0  0  0  0
   10.7054    6.5527    8.2432 C   0  0  2  0  0  0  0  0  0  0  0  0
   12.1739    6.1260    8.1322 C   0  0  1  0  0  0  0  0  0  0  0  0
   10.4099    7.1857    9.5808 C   0  0  2  0  0  0  0  0  0  0  0  0
    4.9755    8.0784    4.6251 Cl  0  0  0  0  0  0  0  0  0  0  0  0
    8.7302    2.1305   12.9860 H   0  0  0  0  0  0  0  0  0  0  0  0
    5.7529    4.6489   10.6038 H   0  0  0  0  0  0  0  0  0  0  0  0
    4.6874    1.7889   13.9421 H   0  0  0  0  0  0  0  0  0  0  0  0
    5.7655    3.5479   15.0971 H   0  0  0  0  0  0  0  0  0  0  0  0
    4.7501    3.0973   17.2050 H   0  0  0  0  0  0  0  0  0  0  0  0
    4.7662    1.7889   16.3837 H   0  0  0  0  0  0  0  0  0  0  0  0
    3.4258    2.6408   16.4799 H   0  0  0  0  0  0  0  0  0  0  0  0
    4.5952    5.3323   16.0260 H   0  0  0  0  0  0  0  0  0  0  0  0
    3.2422    4.8698   15.2736 H   0  0  0  0  0  0  0  0  0  0  0  0
    4.4886    5.3725   14.4394 H   0  0  0  0  0  0  0  0  0  0  0  0
    2.3119    3.0063   14.5196 H   0  0  0  0  0  0  0  0  0  0  0  0
    2.5116    1.5934   13.6886 H   0  0  0  0  0  0  0  0  0  0  0  0
   10.2899    4.4953    9.7840 H   0  0  0  0  0  0  0  0  0  0  0  0
    9.6641    3.4136    8.7974 H   0  0  0  0  0  0  0  0  0  0  0  0
   10.1637    4.8623    7.1451 H   0  0  0  0  0  0  0  0  0  0  0  0
    9.4339    7.4225    3.8725 H   0  0  0  0  0  0  0  0  0  0  0  0
    6.0189    6.7825    6.8580 H   0  0  0  0  0  0  0  0  0  0  0  0
   10.5469    7.2420    7.5365 H   0  0  0  0  0  0  0  0  0  0  0  0
   12.7505    6.8526    8.3996 H   0  0  0  0  0  0  0  0  0  0  0  0
   12.3279    5.3740    8.7028 H   0  0  0  0  0  0  0  0  0  0  0  0
   12.3574    5.8485    7.2109 H   0  0  0  0  0  0  0  0  0  0  0  0
   10.9176    8.0088    9.6733 H   0  0  0  0  0  0  0  0  0  0  0  0
   10.6947    6.5825   10.2909 H   0  0  0  0  0  0  0  0  0  0  0  0
    9.4662    7.3673    9.6781 H   0  0  0  0  0  0  0  0  0  0  0  0
    1.7066    3.3554   12.2112 H   0  0  0  0  0  0  0  0  0  0  0  0
  2  1  2  0
  2  3  1  0
  3  4  1  0
  4  9  1  0
  4  5  2  0
  5  6  1  0
  6  7  2  0
  6 32  1  0
  8 10  1  0
  8  7  1  0
  9  8  2  0
 10 11  1  0
 11 34  1  6
 11 12  1  0
 12 14  1  0
 12 13  1  0
 13 38  1  1
 13 36  1  0
 14 40  1  1
 14 39  1  0
 15 11  1  0
 15 42  1  1
 16 15  1  0
 17 16  1  0
 17 10  1  0
 18 17  2  0
 19  3  1  0
 19 44  1  1
 20 46  1  6
 20 28  1  0
 20 19  1  0
 21 20  1  0
 21  2  1  0
 22 21  1  0
 23 22  2  0
 24 23  1  0
 25 24  2  0
 25 26  1  0
 26 27  2  0
 27 22  1  0
 27 48  1  0
 28 30  1  0
 29 28  1  0
 29 50  1  1
 29 51  1  0
 30 53  1  6
 30 55  1  0
 30 54  1  0
 31 26  1  0
 33  9  1  0
 12 35  1  6
 37 13  1  0
 41 14  1  0
 43 15  1  0
 45 19  1  0
 47 24  1  0
 28 49  1  6
 52 29  1  0
 56 16  1  0
M  END
$$$$
