out_1001212
     RDKit          3D

 41 44  0  0  1  0  0  0  0  0999 V2000
    0.6962    2.5041   10.1320 Cl  0  0  0  0  0  0  0  0  0  0  0  0
    4.2490    3.6915   15.5935 N   0  0  0  0  0  0  0  0  0  0  0  0
    3.4348    3.3648   15.6631 H   0  0  0  0  0  0  0  0  0  0  0  0
    7.6124    0.1663   14.2863 C   0  0  0  0  0  0  0  0  0  0  0  0
    7.9591   -0.7160   14.3493 H   0  0  0  0  0  0  0  0  0  0  0  0
    7.2624    0.8736   15.4350 C   0  0  0  0  0  0  0  0  0  0  0  0
    7.3779    0.4666   16.2856 H   0  0  0  0  0  0  0  0  0  0  0  0
    6.7473    2.1670   15.3610 C   0  0  0  0  0  0  0  0  0  0  0  0
    6.5983    2.7860   14.1049 C   0  0  0  0  0  0  0  0  0  0  0  0
    6.1334    4.2175   14.0513 C   0  0  2  0  0  0  0  0  0  0  0  0
    6.5962    4.6889   14.8019 H   0  0  0  0  0  0  0  0  0  0  0  0
    4.6236    4.3528   14.3248 C   0  0  1  0  0  0  0  0  0  0  0  0
    4.4310    5.3276   14.4333 H   0  0  0  0  0  0  0  0  0  0  0  0
    3.7117    3.8361   13.2208 C   0  0  0  0  0  0  0  0  0  0  0  0
    3.3873    4.6590   12.1397 C   0  0  0  0  0  0  0  0  0  0  0  0
    3.7987    5.5114   12.0595 H   0  0  0  0  0  0  0  0  0  0  0  0
    2.4728    4.2466   11.1816 C   0  0  0  0  0  0  0  0  0  0  0  0
    2.2596    4.8103   10.4472 H   0  0  0  0  0  0  0  0  0  0  0  0
    1.8776    3.0124   11.3074 C   0  0  0  0  0  0  0  0  0  0  0  0
    3.1182    2.5831   13.2955 C   0  0  0  0  0  0  0  0  0  0  0  0
    3.3556    1.9976   14.0049 H   0  0  0  0  0  0  0  0  0  0  0  0
    2.1841    2.1670   12.3542 C   0  0  0  0  0  0  0  0  0  0  0  0
    1.7655    1.3181   12.4300 H   0  0  0  0  0  0  0  0  0  0  0  0
    6.3309    2.8649   16.6104 C   0  0  0  0  0  0  0  0  0  0  0  0
    5.1099    3.5515   16.6941 C   0  0  0  0  0  0  0  0  0  0  0  0
    4.6594    3.9846   17.9475 C   0  0  0  0  0  0  0  0  0  0  0  0
    3.8174    4.4198   18.0158 H   0  0  0  0  0  0  0  0  0  0  0  0
    5.4189    3.7892   19.0894 C   0  0  0  0  0  0  0  0  0  0  0  0
    5.0869    4.0705   19.9340 H   0  0  0  0  0  0  0  0  0  0  0  0
    6.6596    3.1852   19.0016 C   0  0  0  0  0  0  0  0  0  0  0  0
    7.2014    3.0880   19.7759 H   0  0  0  0  0  0  0  0  0  0  0  0
    7.1058    2.7231   17.7720 C   0  0  0  0  0  0  0  0  0  0  0  0
    7.9549    2.3002   17.7152 H   0  0  0  0  0  0  0  0  0  0  0  0
    7.4447    0.7721   13.0481 C   0  0  0  0  0  0  0  0  0  0  0  0
    7.6711    0.2999   12.2556 H   0  0  0  0  0  0  0  0  0  0  0  0
    6.9499    2.0580   12.9648 C   0  0  0  0  0  0  0  0  0  0  0  0
    6.8460    2.4591   12.1099 H   0  0  0  0  0  0  0  0  0  0  0  0
    6.5327    4.9567   12.7712 C   0  0  2  0  0  0  0  0  0  0  0  0
    7.5032    4.8969   12.6485 H   0  0  0  0  0  0  0  0  0  0  0  0
    6.2701    5.8984   12.8426 H   0  0  0  0  0  0  0  0  0  0  0  0
    6.0805    4.5488   12.0036 H   0  0  0  0  0  0  0  0  0  0  0  0
  1 19  1  0
  2  3  1  0
  2 25  1  0
  4  5  1  0
  4  6  1  0
  6  7  1  0
  8  6  2  0
  8 24  1  0
  9  8  1  0
 10  9  1  0
 10 12  1  0
 10 11  1  1
 12 13  1  1
 12  2  1  0
 14 20  1  0
 14 12  1  0
 15 14  2  0
 16 15  1  0
 17 19  2  0
 17 15  1  0
 18 17  1  0
 19 22  1  0
 20 21  1  0
 22 23  1  0
 22 20  2  0
 24 25  2  0
 24 32  1  0
 25 26  1  0
 26 27  1  0
 26 28  2  0
 28 29  1  0
 30 28  1  0
 30 31  1  0
 32 30  2  0
 33 32  1  0
 34  4  2  0
 35 34  1  0
 36 34  1  0
 36  9  2  0
 37 36  1  0
 38 40  1  1
 38 10  1  0
 39 38  1  0
 41 38  1  0
M  END
$$$$
