out_1113021
     RDKit          3D

 33 34  0  0  1  0  0  0  0  0999 V2000
    4.1602    1.7223    0.4177 O   0  0  0  0  0  0  0  0  0  0  0  0
    1.9545    1.1150    0.5541 N   0  0  0  0  0  0  0  0  0  0  0  0
    0.8867   -0.6019    1.5990 O   0  0  0  0  0  0  0  0  0  0  0  0
    1.8958    0.3814    1.8146 C   0  0  2  0  0  0  0  0  0  0  0  0
    2.7549   -0.0619    1.9754 H   0  0  0  0  0  0  0  0  0  0  0  0
    3.0910    1.4846   -0.1014 C   0  0  0  0  0  0  0  0  0  0  0  0
    0.8917    0.6540   -0.3457 C   0  0  1  0  0  0  0  0  0  0  0  0
    0.0910    1.2139   -0.2752 H   0  0  0  0  0  0  0  0  0  0  0  0
    2.7608    1.5674   -1.5786 C   0  0  2  0  0  0  0  0  0  0  0  0
    3.4937    1.2226   -2.1130 H   0  0  0  0  0  0  0  0  0  0  0  0
    2.5911    2.4864   -1.8398 H   0  0  0  0  0  0  0  0  0  0  0  0
    1.5161    0.7183   -1.7698 C   0  0  2  0  0  0  0  0  0  0  0  0
    1.7902   -0.1847   -2.0324 H   0  0  0  0  0  0  0  0  0  0  0  0
    0.6507   -0.7289    0.1954 C   0  0  2  0  0  0  0  0  0  0  0  0
   -0.2602   -1.0150    0.0216 H   0  0  0  0  0  0  0  0  0  0  0  0
    1.2623   -1.3682   -0.2025 H   0  0  0  0  0  0  0  0  0  0  0  0
    1.5118    1.2164    3.0447 C   0  0  1  0  0  0  0  0  0  0  0  0
    2.6200    2.2452    3.2824 C   0  0  2  0  0  0  0  0  0  0  0  0
    2.6939    2.8190    2.5160 H   0  0  0  0  0  0  0  0  0  0  0  0
    3.4540    1.7909    3.4241 H   0  0  0  0  0  0  0  0  0  0  0  0
    2.4069    2.7711    4.0570 H   0  0  0  0  0  0  0  0  0  0  0  0
    0.1842    1.9202    2.8220 C   0  0  2  0  0  0  0  0  0  0  0  0
   -0.0364    2.4408    3.5990 H   0  0  0  0  0  0  0  0  0  0  0  0
   -0.5032    1.2671    2.6693 H   0  0  0  0  0  0  0  0  0  0  0  0
    0.2516    2.4973    2.0580 H   0  0  0  0  0  0  0  0  0  0  0  0
    1.4294    0.2641    4.2457 C   0  0  2  0  0  0  0  0  0  0  0  0
    1.2431    0.7672    5.0418 H   0  0  0  0  0  0  0  0  0  0  0  0
    2.2656   -0.1967    4.3479 H   0  0  0  0  0  0  0  0  0  0  0  0
    0.7281   -0.3749    4.1002 H   0  0  0  0  0  0  0  0  0  0  0  0
    0.5450    1.2443   -2.7970 C   0  0  2  0  0  0  0  0  0  0  0  0
    0.3126    2.1506   -2.5828 H   0  0  0  0  0  0  0  0  0  0  0  0
   -0.2463    0.7020   -2.7970 H   0  0  0  0  0  0  0  0  0  0  0  0
    0.9518    1.2160   -3.6658 H   0  0  0  0  0  0  0  0  0  0  0  0
  2  4  1  0
  3  4  1  0
  4  5  1  1
 17  4  1  6
  6  1  2  0
  6  2  1  0
  7  8  1  6
  7 14  1  0
  7  2  1  0
  9  6  1  0
  9 10  1  6
 11  9  1  0
 12 13  1  6
 12  9  1  0
 12  7  1  0
 14  3  1  0
 14 15  1  1
 16 14  1  0
 17 18  1  0
 17 26  1  0
 18 20  1  1
 18 21  1  0
 19 18  1  0
 22 17  1  0
 22 23  1  1
 24 22  1  0
 25 22  1  0
 26 28  1  1
 26 27  1  0
 29 26  1  0
 30 31  1  1
 30 12  1  0
 32 30  1  0
 33 30  1  0
M  END
$$$$
