out_137848
     RDKit          3D

 40 43  0  0  0  0  0  0  0  0999 V2000
    0.5448    3.6670    5.6034 S   0  0  0  0  0  0  0  0  0  0  0  0
    4.5716    7.2100    3.2087 N   0  0  0  0  0  0  0  0  0  0  0  0
    4.5509    9.6155    2.9747 N   0  0  0  0  0  0  0  0  0  0  0  0
    5.7170   10.0599    3.5365 N   0  0  0  0  0  0  0  0  0  0  0  0
    3.9499    8.4305    3.4171 C   0  0  0  0  0  0  0  0  0  0  0  0
   -0.3687    3.0343    4.2233 C   0  0  0  0  0  0  0  0  0  0  0  0
    2.6147    6.8627    4.2413 C   0  0  0  0  0  0  0  0  0  0  0  0
   -0.2436    3.4880    2.9264 C   0  0  0  0  0  0  0  0  0  0  0  0
    0.3719    4.1556    2.7244 H   0  0  0  0  0  0  0  0  0  0  0  0
    3.7517    6.2353    3.7098 C   0  0  0  0  0  0  0  0  0  0  0  0
    2.7469    8.2738    4.0443 C   0  0  0  0  0  0  0  0  0  0  0  0
    1.6163    6.0564    4.8249 C   0  0  0  0  0  0  0  0  0  0  0  0
    0.8568    6.4463    5.1941 H   0  0  0  0  0  0  0  0  0  0  0  0
    3.9199    4.8514    3.7269 C   0  0  0  0  0  0  0  0  0  0  0  0
    4.6783    4.4532    3.3654 H   0  0  0  0  0  0  0  0  0  0  0  0
   -1.2928    2.0329    4.5122 C   0  0  0  0  0  0  0  0  0  0  0  0
   -1.3807    1.7184    5.3826 H   0  0  0  0  0  0  0  0  0  0  0  0
    1.7698    4.7059    4.8457 C   0  0  0  0  0  0  0  0  0  0  0  0
    2.9271    4.0998    4.2962 C   0  0  0  0  0  0  0  0  0  0  0  0
    3.0145    3.1744    4.3229 H   0  0  0  0  0  0  0  0  0  0  0  0
    5.8552    6.9861    2.5455 C   0  0  2  0  0  0  0  0  0  0  0  0
    6.1785    7.8154    2.1861 H   0  0  0  0  0  0  0  0  0  0  0  0
    5.7411    6.3517    1.8340 H   0  0  0  0  0  0  0  0  0  0  0  0
    6.4880    6.6440    3.1810 H   0  0  0  0  0  0  0  0  0  0  0  0
    4.0977   10.4753    2.0463 C   0  0  0  0  0  0  0  0  0  0  0  0
    3.3267   10.3803    1.5347 H   0  0  0  0  0  0  0  0  0  0  0  0
   -1.0326    2.9499    1.9279 C   0  0  0  0  0  0  0  0  0  0  0  0
   -0.9372    3.2486    1.0522 H   0  0  0  0  0  0  0  0  0  0  0  0
   -2.0743    1.5101    3.5099 C   0  0  0  0  0  0  0  0  0  0  0  0
   -2.6850    0.8372    3.7069 H   0  0  0  0  0  0  0  0  0  0  0  0
    5.9470   11.2080    2.9321 C   0  0  0  0  0  0  0  0  0  0  0  0
    6.6786   11.7535    3.1130 H   0  0  0  0  0  0  0  0  0  0  0  0
   -1.9622    1.9701    2.2215 C   0  0  0  0  0  0  0  0  0  0  0  0
   -2.5079    1.6256    1.5523 H   0  0  0  0  0  0  0  0  0  0  0  0
    4.9727   11.5049    1.9980 C   0  0  0  0  0  0  0  0  0  0  0  0
    4.9281   12.2556    1.4508 H   0  0  0  0  0  0  0  0  0  0  0  0
    1.7843    9.3327    4.4431 C   0  0  2  0  0  0  0  0  0  0  0  0
    2.1506   10.1944    4.2313 H   0  0  0  0  0  0  0  0  0  0  0  0
    1.6202    9.2776    5.3870 H   0  0  0  0  0  0  0  0  0  0  0  0
    0.9592    9.2104    3.9671 H   0  0  0  0  0  0  0  0  0  0  0  0
  2  5  1  0
  2 10  1  0
  3  5  1  0
  3  4  1  0
  5 11  2  0
  6 16  1  0
  6  1  1  0
  7 12  2  0
  8  6  2  0
  9  8  1  0
 10 14  2  0
 10  7  1  0
 11  7  1  0
 11 37  1  0
 12 18  1  0
 12 13  1  0
 14 19  1  0
 15 14  1  0
 16 17  1  0
 18  1  1  0
 19 20  1  0
 19 18  2  0
 21 24  1  1
 21  2  1  0
 22 21  1  0
 23 21  1  0
 25  3  1  0
 26 25  1  0
 27 33  2  0
 27  8  1  0
 28 27  1  0
 29 30  1  0
 29 16  2  0
 31 32  1  0
 31  4  2  0
 33 29  1  0
 34 33  1  0
 35 25  2  0
 35 31  1  0
 36 35  1  0
 37 39  1  1
 38 37  1  0
 40 37  1  0
M  END
$$$$
