out_1767847
     RDKit          3D

 30 31  0  0  0  0  0  0  0  0999 V2000
   15.8995    9.7717   12.2191 F   0  0  0  0  0  0  0  0  0  0  0  0
   16.6722   11.6865   11.6945 F   0  0  0  0  0  0  0  0  0  0  0  0
   14.5778   11.3959   11.8400 F   0  0  0  0  0  0  0  0  0  0  0  0
   13.4392    3.7505    6.8182 O   0  0  0  0  0  0  0  0  0  0  0  0
   12.7318    3.8392    6.3943 H   0  0  0  0  0  0  0  0  0  0  0  0
   13.2418    5.9467    6.5917 O   0  0  0  0  0  0  0  0  0  0  0  0
   15.0100    7.4741    7.8485 N   0  0  0  0  0  0  0  0  0  0  0  0
   14.2787    7.3069    7.3931 H   0  0  0  0  0  0  0  0  0  0  0  0
   13.8212    4.9724    7.1029 C   0  0  0  0  0  0  0  0  0  0  0  0
   14.9609    5.0467    8.0105 C   0  0  0  0  0  0  0  0  0  0  0  0
   15.5000    3.8908    8.5312 C   0  0  0  0  0  0  0  0  0  0  0  0
   15.0896    3.0569    8.3283 H   0  0  0  0  0  0  0  0  0  0  0  0
   16.6236    3.9094    9.3436 C   0  0  0  0  0  0  0  0  0  0  0  0
   16.9919    3.1044    9.6913 H   0  0  0  0  0  0  0  0  0  0  0  0
   17.1866    5.1355    9.6291 C   0  0  0  0  0  0  0  0  0  0  0  0
   17.9647    5.1623   10.1742 H   0  0  0  0  0  0  0  0  0  0  0  0
   16.6753    6.3079    9.1643 C   0  0  0  0  0  0  0  0  0  0  0  0
   17.0927    7.1294    9.3908 H   0  0  0  0  0  0  0  0  0  0  0  0
   15.5326    6.2996    8.3487 C   0  0  0  0  0  0  0  0  0  0  0  0
   15.3056    8.8055    8.2740 C   0  0  0  0  0  0  0  0  0  0  0  0
   15.4096    9.1419    9.6205 C   0  0  0  0  0  0  0  0  0  0  0  0
   15.3235    8.4752   10.2914 H   0  0  0  0  0  0  0  0  0  0  0  0
   15.6373   10.4567    9.9673 C   0  0  0  0  0  0  0  0  0  0  0  0
   15.7018   11.4640    9.0243 C   0  0  0  0  0  0  0  0  0  0  0  0
   15.8249   12.3681    9.2886 H   0  0  0  0  0  0  0  0  0  0  0  0
   15.5789   11.1276    7.6739 C   0  0  0  0  0  0  0  0  0  0  0  0
   15.6354   11.8046    7.0109 H   0  0  0  0  0  0  0  0  0  0  0  0
   15.3752    9.8045    7.2956 C   0  0  0  0  0  0  0  0  0  0  0  0
   15.2835    9.5795    6.3770 H   0  0  0  0  0  0  0  0  0  0  0  0
   15.6698   10.8407   11.4145 C   0  0  2  0  0  0  0  0  0  0  0  0
  4  9  1  0
  5  4  1  0
  6  9  2  0
  7 20  1  0
  7 19  1  0
  8  7  1  0
  9 10  1  0
 10 19  2  0
 10 11  1  0
 11 13  2  0
 12 11  1  0
 13 15  1  0
 13 14  1  0
 15 16  1  0
 17 18  1  0
 17 15  2  0
 19 17  1  0
 20 21  2  0
 21 23  1  0
 21 22  1  0
 23 30  1  0
 24 25  1  0
 24 23  2  0
 26 24  1  0
 27 26  1  0
 28 26  2  0
 28 20  1  0
 29 28  1  0
 30  2  1  6
 30  3  1  0
 30  1  1  0
M  END
$$$$
