out_1010764
     RDKit          3D

 49 51  0  0  1  0  0  0  0  0999 V2000
    5.9929   14.2521    6.7679 Cl  0  0  0  0  0  0  0  0  0  0  0  0
    3.9852    6.5745   12.3380 O   0  0  0  0  0  0  0  0  0  0  0  0
    5.5210    6.0862   10.7863 O   0  0  0  0  0  0  0  0  0  0  0  0
    0.6498    6.0295   12.2439 O   0  0  0  0  0  0  0  0  0  0  0  0
   -0.5077    8.6072   10.7283 F   0  0  0  0  0  0  0  0  0  0  0  0
    3.8294    2.9567    8.2883 O   0  0  0  0  0  0  0  0  0  0  0  0
    0.9169    9.6396    9.5075 F   0  0  0  0  0  0  0  0  0  0  0  0
    4.3154    6.4596   11.1789 C   0  0  0  0  0  0  0  0  0  0  0  0
    0.5233   10.3139   11.4750 F   0  0  0  0  0  0  0  0  0  0  0  0
    3.3796    6.7456   10.0035 C   0  0  1  0  0  0  0  0  0  0  0  0
    1.9518    7.0481   10.4940 C   0  0  1  0  0  0  0  0  0  0  0  0
    1.3935    7.1264    9.6920 H   0  0  0  0  0  0  0  0  0  0  0  0
    3.9349    7.9103    9.2729 C   0  0  0  0  0  0  0  0  0  0  0  0
    4.7761   10.1913    8.2729 C   0  0  0  0  0  0  0  0  0  0  0  0
    4.3433    8.9116    8.7812 C   0  0  0  0  0  0  0  0  0  0  0  0
    2.6625    4.3415    9.7706 C   0  0  0  0  0  0  0  0  0  0  0  0
    1.3981    5.8610   11.2934 C   0  0  0  0  0  0  0  0  0  0  0  0
    4.1292   11.3377    8.7165 C   0  0  0  0  0  0  0  0  0  0  0  0
    3.4309   11.2670    9.3257 H   0  0  0  0  0  0  0  0  0  0  0  0
    1.7730    4.5050   10.8187 C   0  0  0  0  0  0  0  0  0  0  0  0
    4.5148   12.5797    8.2584 C   0  0  0  0  0  0  0  0  0  0  0  0
    4.0821   13.3447    8.5629 H   0  0  0  0  0  0  0  0  0  0  0  0
    5.5270   12.6794    7.3651 C   0  0  0  0  0  0  0  0  0  0  0  0
    3.3152    5.5160    9.0748 C   0  0  1  0  0  0  0  0  0  0  0  0
    2.8098    5.7402    8.2779 H   0  0  0  0  0  0  0  0  0  0  0  0
    4.2130    5.2707    8.8017 H   0  0  0  0  0  0  0  0  0  0  0  0
    1.7805    8.3624   11.2729 C   0  0  1  0  0  0  0  0  0  0  0  0
    1.5919    8.1557   12.2022 H   0  0  0  0  0  0  0  0  0  0  0  0
    2.6139    8.8574   11.2435 H   0  0  0  0  0  0  0  0  0  0  0  0
    5.8058   10.3173    7.3682 C   0  0  0  0  0  0  0  0  0  0  0  0
    6.2403    9.5537    7.0646 H   0  0  0  0  0  0  0  0  0  0  0  0
    2.9514    3.0376    9.3337 C   0  0  0  0  0  0  0  0  0  0  0  0
    1.1704    3.4000   11.4534 C   0  0  0  0  0  0  0  0  0  0  0  0
    0.5769    3.5237   12.1592 H   0  0  0  0  0  0  0  0  0  0  0  0
    6.2092   11.5623    6.9007 C   0  0  0  0  0  0  0  0  0  0  0  0
    6.9120   11.6453    6.2979 H   0  0  0  0  0  0  0  0  0  0  0  0
    0.6884    9.2216   10.7376 C   0  0  1  0  0  0  0  0  0  0  0  0
    1.4763    2.1448   11.0106 C   0  0  0  0  0  0  0  0  0  0  0  0
    1.0847    1.4071   11.4204 H   0  0  0  0  0  0  0  0  0  0  0  0
    2.3562    1.9498    9.9646 C   0  0  0  0  0  0  0  0  0  0  0  0
    2.5529    1.0863    9.6805 H   0  0  0  0  0  0  0  0  0  0  0  0
    6.4959    5.8325   11.8206 C   0  0  2  0  0  0  0  0  0  0  0  0
    7.3053    5.5018   11.4244 H   0  0  0  0  0  0  0  0  0  0  0  0
    6.1498    5.1782   12.4332 H   0  0  0  0  0  0  0  0  0  0  0  0
    6.6806    6.6467   12.2941 H   0  0  0  0  0  0  0  0  0  0  0  0
    4.1878    1.6642    7.8017 C   0  0  2  0  0  0  0  0  0  0  0  0
    4.9093    1.7468    7.1735 H   0  0  0  0  0  0  0  0  0  0  0  0
    3.4306    1.2638    7.3677 H   0  0  0  0  0  0  0  0  0  0  0  0
    4.4650    1.1107    8.5357 H   0  0  0  0  0  0  0  0  0  0  0  0
  1 23  1  0
  3  8  1  0
  3 42  1  0
 37  5  1  6
  6 32  1  0
  7 37  1  0
  8  2  2  0
 10 13  1  6
 10 11  1  0
 10  8  1  0
 11 12  1  6
 11 27  1  0
 11 17  1  0
 14 18  2  0
 14 15  1  0
 15 13  3  0
 16 20  2  0
 17  4  2  0
 18 19  1  0
 20 17  1  0
 20 33  1  0
 21 22  1  0
 21 18  1  0
 23 21  2  0
 24 16  1  0
 24 10  1  0
 24 25  1  6
 26 24  1  0
 27 28  1  1
 29 27  1  0
 30 14  1  0
 31 30  1  0
 32 16  1  0
 32 40  2  0
 33 34  1  0
 35 23  1  0
 35 30  2  0
 36 35  1  0
 37 27  1  0
 37  9  1  0
 38 39  1  0
 38 33  2  0
 40 38  1  0
 41 40  1  0
 42 45  1  1
 42 44  1  0
 43 42  1  0
 46  6  1  0
 46 49  1  1
 47 46  1  0
 48 46  1  0
M  END
$$$$
