out_1378474
     RDKit          3D

 29 29  0  0  0  0  0  0  0  0999 V2000
   -7.4560   10.1469    3.4815 C   0  0  0  0  0  0  0  0  0  0  0  0
   -6.3207    9.4076    3.6133 C   0  0  0  0  0  0  0  0  0  0  0  0
   -5.7343    9.4325    4.3603 H   0  0  0  0  0  0  0  0  0  0  0  0
   -7.1910    8.8947    1.7111 C   0  0  0  0  0  0  0  0  0  0  0  0
   -7.3707    8.2964    0.3645 C   0  0  2  0  0  0  0  0  0  0  0  0
   -7.2753    8.9931   -0.3180 H   0  0  0  0  0  0  0  0  0  0  0  0
   -8.2633    7.8969    0.3011 H   0  0  0  0  0  0  0  0  0  0  0  0
   -6.6920    7.6040    0.2215 H   0  0  0  0  0  0  0  0  0  0  0  0
   -9.2452   10.3313    1.6293 C   0  0  1  0  0  0  0  0  0  0  0  0
   -9.9434   10.4854    2.3141 H   0  0  0  0  0  0  0  0  0  0  0  0
   -9.5930    9.6761    0.9737 H   0  0  0  0  0  0  0  0  0  0  0  0
   -8.9161   11.6382    0.9263 C   0  0  2  0  0  0  0  0  0  0  0  0
   -8.3888   11.4383    0.1126 H   0  0  0  0  0  0  0  0  0  0  0  0
   -8.3495   12.1876    1.5240 H   0  0  0  0  0  0  0  0  0  0  0  0
  -10.8265   13.4521    1.9310 C   0  0  2  0  0  0  0  0  0  0  0  0
  -11.0492   12.8050    2.6465 H   0  0  0  0  0  0  0  0  0  0  0  0
  -10.0802   14.0203    2.2477 H   0  0  0  0  0  0  0  0  0  0  0  0
  -12.0431   14.3200    1.6198 C   0  0  2  0  0  0  0  0  0  0  0  0
  -11.8061   14.9821    0.9373 H   0  0  0  0  0  0  0  0  0  0  0  0
  -12.3329   14.7805    2.4349 H   0  0  0  0  0  0  0  0  0  0  0  0
  -12.7713   13.7546    1.2876 H   0  0  0  0  0  0  0  0  0  0  0  0
   -8.0293    9.8013    2.2672 N   0  0  0  0  0  0  0  0  0  0  0  0
   -6.1556    8.6305    2.5153 N   0  0  0  0  0  0  0  0  0  0  0  0
   -7.9772   11.0940    4.4013 N   0  0  0  0  0  0  0  0  0  0  0  0
   -7.2833   11.3336    5.3918 O   0  0  0  0  0  0  0  0  0  0  0  0
   -9.0702   11.6164    4.1820 O   0  0  0  0  0  0  0  0  0  0  0  0
  -11.4156   11.6962    0.0978 O   0  0  0  0  0  0  0  0  0  0  0  0
   -9.9117   13.5500   -0.5148 O   0  0  0  0  0  0  0  0  0  0  0  0
  -10.3412   12.5838    0.4640 S   0  0  2  0  0  0  0  0  0  0  0  0
  1  2  2  0
  1 24  1  0
  2  3  1  0
  4 22  1  0
  4 23  2  0
  5  4  1  0
  5  6  1  6
  7  5  1  0
  8  5  1  0
  9 22  1  0
  9 10  1  1
 11  9  1  0
 12 14  1  1
 12  9  1  0
 13 12  1  0
 15 17  1  1
 15 16  1  0
 18 15  1  0
 18 20  1  1
 19 18  1  0
 21 18  1  0
 22  1  1  0
 23  2  1  0
 24 25  1  0
 26 24  2  0
 27 29  2  0
 28 29  2  0
 29 12  1  1
 29 15  1  0
M  CHG  2  24   1  25  -1
M  END
$$$$
