out_1130247
     RDKit          3D

 35 38  0  0  1  0  0  0  0  0999 V2000
    4.5559    6.1051   -2.1741 O   0  0  0  0  0  0  0  0  0  0  0  0
    4.4337   10.6451   -2.5155 O   0  0  0  0  0  0  0  0  0  0  0  0
    4.7299    8.3701   -2.5933 N   0  0  0  0  0  0  0  0  0  0  0  0
    3.3557    7.7017   -1.0121 N   0  0  0  0  0  0  0  0  0  0  0  0
    4.0463   13.5228    5.5014 N   0  0  0  0  0  0  0  0  0  0  0  0
    5.2116   12.8923    5.7365 N   0  0  0  0  0  0  0  0  0  0  0  0
    3.6547    9.8190    0.3100 C   0  0  0  0  0  0  0  0  0  0  0  0
    2.8019   10.8722    0.6011 C   0  0  0  0  0  0  0  0  0  0  0  0
    4.2889   12.1189    3.8206 C   0  0  0  0  0  0  0  0  0  0  0  0
    4.2005    9.5294   -2.1215 C   0  0  0  0  0  0  0  0  0  0  0  0
    4.0661   11.3344    2.5995 C   0  0  0  0  0  0  0  0  0  0  0  0
    2.9927   11.6194    1.7475 C   0  0  0  0  0  0  0  0  0  0  0  0
    2.4078   12.3126    1.9529 H   0  0  0  0  0  0  0  0  0  0  0  0
    4.7171    9.5045    1.1388 C   0  0  0  0  0  0  0  0  0  0  0  0
    5.2839    8.7950    0.9369 H   0  0  0  0  0  0  0  0  0  0  0  0
    4.9189   10.2718    2.2787 C   0  0  0  0  0  0  0  0  0  0  0  0
    5.6343   10.0761    2.8397 H   0  0  0  0  0  0  0  0  0  0  0  0
    3.2446    9.1477   -0.9872 C   0  0  1  0  0  0  0  0  0  0  0  0
    4.2330    7.2574   -1.9274 C   0  0  0  0  0  0  0  0  0  0  0  0
    1.7657   11.0383   -0.4772 C   0  0  2  0  0  0  0  0  0  0  0  0
    1.9863   11.7795   -1.0625 H   0  0  0  0  0  0  0  0  0  0  0  0
    0.8859   11.1869   -0.0961 H   0  0  0  0  0  0  0  0  0  0  0  0
    3.4750   13.0880    4.3719 C   0  0  0  0  0  0  0  0  0  0  0  0
    2.6683   13.3874    4.0190 H   0  0  0  0  0  0  0  0  0  0  0  0
    1.8227    9.7003   -1.2327 C   0  0  1  0  0  0  0  0  0  0  0  0
    1.6673    9.8359   -2.1804 H   0  0  0  0  0  0  0  0  0  0  0  0
    1.1536    9.0862   -0.8916 H   0  0  0  0  0  0  0  0  0  0  0  0
    5.3460   12.0479    4.7238 C   0  0  0  0  0  0  0  0  0  0  0  0
    6.0687   11.4706    4.6268 H   0  0  0  0  0  0  0  0  0  0  0  0
    3.5564   14.5543    6.3950 C   0  0  2  0  0  0  0  0  0  0  0  0
    3.8078   14.3424    7.2968 H   0  0  0  0  0  0  0  0  0  0  0  0
    2.5995   14.6036    6.3328 H   0  0  0  0  0  0  0  0  0  0  0  0
    3.9370   15.3999    6.1468 H   0  0  0  0  0  0  0  0  0  0  0  0
    2.9554    7.1874   -0.4441 H   0  0  0  0  0  0  0  0  0  0  0  0
    5.3407    8.2879   -3.1794 H   0  0  0  0  0  0  0  0  0  0  0  0
  1 19  2  0
  2 10  2  0
  3 10  1  0
  3 19  1  0
 18  4  1  1
  4 34  1  0
  5  6  1  0
  5 30  1  0
  7  8  1  0
  7 14  2  0
  8 12  2  0
  9 23  2  0
  9 28  1  0
 11  9  1  0
 12 13  1  0
 12 11  1  0
 14 16  1  0
 15 14  1  0
 16 11  2  0
 16 17  1  0
 18 10  1  0
 18  7  1  0
 19  4  1  0
 20 22  1  1
 20  8  1  0
 21 20  1  0
 23  5  1  0
 24 23  1  0
 25 18  1  0
 25 27  1  1
 25 20  1  0
 26 25  1  0
 28  6  2  0
 29 28  1  0
 30 31  1  1
 32 30  1  0
 33 30  1  0
 35  3  1  0
M  END
$$$$
