out_1110339
     RDKit          3D

 49 49  0  0  1  0  0  0  0  0999 V2000
    2.8417    4.0619   12.1336 O   0  0  0  0  0  0  0  0  0  0  0  0
    2.0630    3.3568   14.1035 O   0  0  0  0  0  0  0  0  0  0  0  0
    4.0653    4.6612   15.4332 O   0  0  0  0  0  0  0  0  0  0  0  0
    4.2994    3.9299   15.7237 H   0  0  0  0  0  0  0  0  0  0  0  0
    3.2826    7.5382   10.5920 O   0  0  0  0  0  0  0  0  0  0  0  0
    1.1488    7.1286   11.1274 O   0  0  0  0  0  0  0  0  0  0  0  0
    2.3852   10.5922   11.2993 O   0  0  0  0  0  0  0  0  0  0  0  0
    2.7230    6.9708   14.0270 S   0  0  0  0  0  0  0  0  0  0  0  0
    2.8763    3.9467   13.4698 C   0  0  0  0  0  0  0  0  0  0  0  0
    4.0881    4.6371   14.0228 C   0  0  1  0  0  0  0  0  0  0  0  0
    4.8824    4.1395   13.7388 H   0  0  0  0  0  0  0  0  0  0  0  0
    4.2202    6.0746   13.5266 C   0  0  1  0  0  0  0  0  0  0  0  0
    4.3116    6.0882   12.5610 H   0  0  0  0  0  0  0  0  0  0  0  0
    5.0051    6.4915   13.9152 H   0  0  0  0  0  0  0  0  0  0  0  0
    2.2124    7.5812   11.3952 C   0  0  0  0  0  0  0  0  0  0  0  0
    2.5630    8.2381   12.7240 C   0  0  2  0  0  0  0  0  0  0  0  0
    1.7843    8.7808   12.9706 H   0  0  0  0  0  0  0  0  0  0  0  0
    3.7336    9.1841   12.6956 C   0  0  2  0  0  0  0  0  0  0  0  0
    4.5229    8.7053   12.3996 H   0  0  0  0  0  0  0  0  0  0  0  0
    3.9025    9.5079   13.5953 H   0  0  0  0  0  0  0  0  0  0  0  0
    3.4922   10.3817   11.7689 C   0  0  0  0  0  0  0  0  0  0  0  0
    4.6567   11.2816   11.4849 C   0  0  2  0  0  0  0  0  0  0  0  0
    5.4772   10.7965   11.6642 H   0  0  0  0  0  0  0  0  0  0  0  0
    4.6221   12.0370   12.0917 H   0  0  0  0  0  0  0  0  0  0  0  0
    4.7018   11.8097   10.0440 C   0  0  1  0  0  0  0  0  0  0  0  0
    4.0837   12.5535    9.9723 H   0  0  0  0  0  0  0  0  0  0  0  0
    5.5920   12.1544    9.8737 H   0  0  0  0  0  0  0  0  0  0  0  0
    4.3618   10.7986    8.9500 C   0  0  1  0  0  0  0  0  0  0  0  0
    3.4226   10.5650    9.0127 H   0  0  0  0  0  0  0  0  0  0  0  0
    4.5090   11.2072    8.0831 H   0  0  0  0  0  0  0  0  0  0  0  0
    5.1862    9.5477    9.0486 C   0  0  2  0  0  0  0  0  0  0  0  0
    5.0954    9.1684    9.9364 H   0  0  0  0  0  0  0  0  0  0  0  0
    6.1216    9.7625    8.9081 H   0  0  0  0  0  0  0  0  0  0  0  0
    4.7342    8.5293    8.0113 C   0  0  1  0  0  0  0  0  0  0  0  0
    4.7353    8.9715    7.1474 H   0  0  0  0  0  0  0  0  0  0  0  0
    5.4059    7.8305    7.9725 H   0  0  0  0  0  0  0  0  0  0  0  0
    3.4047    7.8703    8.1787 C   0  0  2  0  0  0  0  0  0  0  0  0
    3.2024    7.4230    7.3417 H   0  0  0  0  0  0  0  0  0  0  0  0
    2.7486    8.5775    8.2834 H   0  0  0  0  0  0  0  0  0  0  0  0
    3.1533    6.8593    9.2967 C   0  0  1  0  0  0  0  0  0  0  0  0
    2.2442    6.5041    9.2100 H   0  0  0  0  0  0  0  0  0  0  0  0
    4.1528    5.6890    9.2997 C   0  0  2  0  0  0  0  0  0  0  0  0
    5.0302    6.0180    9.5090 H   0  0  0  0  0  0  0  0  0  0  0  0
    4.1645    5.2762    8.4328 H   0  0  0  0  0  0  0  0  0  0  0  0
    3.8874    5.0426    9.9603 H   0  0  0  0  0  0  0  0  0  0  0  0
    1.6656    3.5255   11.4789 C   0  0  2  0  0  0  0  0  0  0  0  0
    1.6327    2.5752   11.6104 H   0  0  0  0  0  0  0  0  0  0  0  0
    1.7057    3.7183   10.5403 H   0  0  0  0  0  0  0  0  0  0  0  0
    0.8791    3.9278   11.8556 H   0  0  0  0  0  0  0  0  0  0  0  0
  1  9  1  0
  3  4  1  0
  5 15  1  0
  6 15  2  0
  7 21  2  0
  9 10  1  0
  9  2  2  0
 10 11  1  1
 10  3  1  0
 12 14  1  1
 12 10  1  0
 12  8  1  0
 13 12  1  0
 15 16  1  0
 16 17  1  1
 16  8  1  0
 18 16  1  0
 18 20  1  1
 19 18  1  0
 21 18  1  0
 22 23  1  1
 22 21  1  0
 22 24  1  0
 25 22  1  0
 25 26  1  1
 27 25  1  0
 28 29  1  6
 28 31  1  0
 28 25  1  0
 30 28  1  0
 31 32  1  1
 33 31  1  0
 34 37  1  0
 34 31  1  0
 34 35  1  6
 36 34  1  0
 37 39  1  1
 37 40  1  0
 38 37  1  0
 40 41  1  6
 40 42  1  0
 40  5  1  0
 42 43  1  1
 42 45  1  0
 44 42  1  0
 46 47  1  6
 46 49  1  0
 46  1  1  0
 48 46  1  0
M  END
$$$$
