out_1784761
     RDKit          3D

 47 50  0  0  1  0  0  0  0  0999 V2000
    6.0870    8.1002    1.4328 O   0  0  0  0  0  0  0  0  0  0  0  0
    7.0859    8.2370    3.4158 O   0  0  0  0  0  0  0  0  0  0  0  0
    7.0413    9.0415    3.2624 H   0  0  0  0  0  0  0  0  0  0  0  0
    7.1493    3.9673    3.2984 O   0  0  0  0  0  0  0  0  0  0  0  0
    5.8996    4.2159    6.7305 O   0  0  0  0  0  0  0  0  0  0  0  0
    6.1549    4.9534    6.9801 H   0  0  0  0  0  0  0  0  0  0  0  0
    6.2921    6.0798    2.7501 C   0  0  1  0  0  0  0  0  0  0  0  0
    6.1987    5.8626    4.2583 C   0  0  1  0  0  0  0  0  0  0  0  0
    6.9653    6.2342    4.7199 H   0  0  0  0  0  0  0  0  0  0  0  0
    5.3852    6.2426    4.6241 H   0  0  0  0  0  0  0  0  0  0  0  0
    6.1868    4.3556    4.3218 C   0  0  1  0  0  0  0  0  0  0  0  0
    4.8222    3.8304    3.9217 C   0  0  2  0  0  0  0  0  0  0  0  0
    4.1455    4.2006    4.5083 H   0  0  0  0  0  0  0  0  0  0  0  0
    4.8046    2.8646    4.0131 H   0  0  0  0  0  0  0  0  0  0  0  0
    4.5116    4.2152    2.4754 C   0  0  2  0  0  0  0  0  0  0  0  0
    3.5571    4.1342    2.3240 H   0  0  0  0  0  0  0  0  0  0  0  0
    4.9580    3.5923    1.8808 H   0  0  0  0  0  0  0  0  0  0  0  0
    4.9525    5.6469    2.1224 C   0  0  1  0  0  0  0  0  0  0  0  0
    4.2621    6.2635    2.4119 H   0  0  0  0  0  0  0  0  0  0  0  0
    5.0254    5.7195    1.1580 H   0  0  0  0  0  0  0  0  0  0  0  0
    6.4820    7.5603    2.4283 C   0  0  0  0  0  0  0  0  0  0  0  0
    7.4852    5.1028    2.4055 C   0  0  1  0  0  0  0  0  0  0  0  0
    8.8832    5.6050    2.7832 C   0  0  2  0  0  0  0  0  0  0  0  0
    8.8297    6.0086    3.6737 H   0  0  0  0  0  0  0  0  0  0  0  0
    9.4086    6.6769    1.8013 C   0  0  1  0  0  0  0  0  0  0  0  0
    8.9755    7.5184    2.0126 H   0  0  0  0  0  0  0  0  0  0  0  0
   10.3580    6.7929    1.9606 H   0  0  0  0  0  0  0  0  0  0  0  0
    9.2077    6.4025    0.3079 C   0  0  1  0  0  0  0  0  0  0  0  0
    9.2470    7.2419   -0.1757 H   0  0  0  0  0  0  0  0  0  0  0  0
    9.9335    5.8431   -0.0120 H   0  0  0  0  0  0  0  0  0  0  0  0
    7.8828    5.7153    0.0040 C   0  0  2  0  0  0  0  0  0  0  0  0
    7.9083    5.3696   -0.9025 H   0  0  0  0  0  0  0  0  0  0  0  0
    7.1695    6.3717    0.0519 H   0  0  0  0  0  0  0  0  0  0  0  0
    7.5660    4.5651    0.9671 C   0  0  1  0  0  0  0  0  0  0  0  0
    6.6842    4.2083    0.7308 H   0  0  0  0  0  0  0  0  0  0  0  0
    8.5805    3.4107    0.8881 C   0  0  1  0  0  0  0  0  0  0  0  0
    8.1797    2.6272    1.2938 H   0  0  0  0  0  0  0  0  0  0  0  0
    8.7316    3.2047   -0.0479 H   0  0  0  0  0  0  0  0  0  0  0  0
    9.9391    3.6468    1.5490 C   0  0  1  0  0  0  0  0  0  0  0  0
   10.3629    2.7899    1.7131 H   0  0  0  0  0  0  0  0  0  0  0  0
   10.5034    4.1447    0.9384 H   0  0  0  0  0  0  0  0  0  0  0  0
    9.8419    4.4059    2.8603 C   0  0  1  0  0  0  0  0  0  0  0  0
   10.7246    4.7222    3.1107 H   0  0  0  0  0  0  0  0  0  0  0  0
    9.5373    3.8011    3.5539 H   0  0  0  0  0  0  0  0  0  0  0  0
    6.7080    3.7809    5.6248 C   0  0  2  0  0  0  0  0  0  0  0  0
    6.6989    2.8116    5.5785 H   0  0  0  0  0  0  0  0  0  0  0  0
    7.6244    4.0665    5.7622 H   0  0  0  0  0  0  0  0  0  0  0  0
  1 21  2  0
  3  2  1  0
 11  4  1  6
  5  6  1  0
  7 21  1  1
  7  8  1  0
  8 11  1  0
  8 10  1  1
  8  9  1  0
 11 45  1  0
 12 14  1  6
 12 11  1  0
 12 13  1  0
 15 12  1  0
 15 16  1  1
 17 15  1  0
 18 19  1  1
 18 15  1  0
 18  7  1  0
 20 18  1  0
 21  2  1  0
 22  7  1  0
 22 23  1  0
 22  4  1  1
 23 42  1  0
 23 24  1  1
 25 27  1  6
 25 26  1  0
 25 23  1  0
 28 25  1  0
 28 29  1  6
 30 28  1  0
 31 33  1  6
 31 28  1  0
 31 34  1  0
 32 31  1  0
 34 35  1  6
 34 22  1  0
 36 34  1  0
 36 37  1  1
 36 39  1  0
 38 36  1  0
 39 40  1  1
 39 42  1  0
 41 39  1  0
 42 43  1  1
 42 44  1  0
 45 47  1  1
 45  5  1  0
 46 45  1  0
M  END
$$$$
