out_1130234
     RDKit          3D

 37 39  0  0  1  0  0  0  0  0999 V2000
    6.0959    1.9045    5.3430 O   0  0  0  0  0  0  0  0  0  0  0  0
    0.6262    1.1647   -0.1519 O   0  0  0  0  0  0  0  0  0  0  0  0
    0.2513    0.4357   -0.1286 H   0  0  0  0  0  0  0  0  0  0  0  0
    4.1566    0.7737    4.9065 C   0  0  0  0  0  0  0  0  0  0  0  0
    2.6052    2.3731    0.3493 C   0  0  0  0  0  0  0  0  0  0  0  0
    2.4185    2.8899   -0.4010 H   0  0  0  0  0  0  0  0  0  0  0  0
    5.8144    3.2351    2.6476 O   0  0  0  0  0  0  0  0  0  0  0  0
    3.7916    2.0443    2.4609 C   0  0  0  0  0  0  0  0  0  0  0  0
    1.6193    0.8164    2.0667 C   0  0  1  0  0  0  0  0  0  0  0  0
    1.3616   -0.1238    2.1659 H   0  0  0  0  0  0  0  0  0  0  0  0
    2.8733    1.0542    2.9057 C   0  0  0  0  0  0  0  0  0  0  0  0
    4.9284    2.3731    3.2126 C   0  0  0  0  0  0  0  0  0  0  0  0
    2.0883   -0.6602    4.6285 C   0  0  2  0  0  0  0  0  0  0  0  0
    2.4309   -1.5264    4.3976 H   0  0  0  0  0  0  0  0  0  0  0  0
    1.2266   -0.5374    4.2229 H   0  0  0  0  0  0  0  0  0  0  0  0
    2.0048   -0.5934    5.5825 H   0  0  0  0  0  0  0  0  0  0  0  0
    3.0372    0.4069    4.1300 C   0  0  0  0  0  0  0  0  0  0  0  0
    4.6922    0.3262    6.1880 C   0  0  0  0  0  0  0  0  0  0  0  0
    5.0611    1.7355    4.4434 C   0  0  0  0  0  0  0  0  0  0  0  0
    3.5277    2.7800    1.2174 C   0  0  0  0  0  0  0  0  0  0  0  0
    4.0172    3.5485    1.0327 H   0  0  0  0  0  0  0  0  0  0  0  0
    0.4769    1.6831    2.6185 C   0  0  2  0  0  0  0  0  0  0  0  0
    0.3728    1.5151    3.5577 H   0  0  0  0  0  0  0  0  0  0  0  0
   -0.3392    1.4647    2.1631 H   0  0  0  0  0  0  0  0  0  0  0  0
    0.6826    2.6104    2.4803 H   0  0  0  0  0  0  0  0  0  0  0  0
    1.8647    1.0897    0.5697 C   0  0  1  0  0  0  0  0  0  0  0  0
    2.3972    0.3545    0.2012 H   0  0  0  0  0  0  0  0  0  0  0  0
    5.8182    1.0373    6.3760 C   0  0  0  0  0  0  0  0  0  0  0  0
    6.3568    0.9515    7.1294 H   0  0  0  0  0  0  0  0  0  0  0  0
    6.7392    3.9498    3.4563 C   0  0  2  0  0  0  0  0  0  0  0  0
    7.1939    4.6043    2.9205 H   0  0  0  0  0  0  0  0  0  0  0  0
    7.3798    3.3379    3.8260 H   0  0  0  0  0  0  0  0  0  0  0  0
    6.2688    4.3896    4.1684 H   0  0  0  0  0  0  0  0  0  0  0  0
    4.1915   -0.7367    7.1182 C   0  0  2  0  0  0  0  0  0  0  0  0
    3.3119   -0.5055    7.4243 H   0  0  0  0  0  0  0  0  0  0  0  0
    4.7835   -0.8087    7.8700 H   0  0  0  0  0  0  0  0  0  0  0  0
    4.1583   -1.5772    6.6557 H   0  0  0  0  0  0  0  0  0  0  0  0
  1 28  1  0
  2  3  1  0
  2 26  1  0
  4 18  1  0
  5 26  1  0
  5 20  2  0
  6  5  1  0
  7 12  1  0
  7 30  1  0
  8 11  2  0
  8 12  1  0
  9 10  1  6
  9 22  1  0
  9 11  1  0
 11 17  1  0
 12 19  2  0
 13 16  1  1
 14 13  1  0
 15 13  1  0
 17 13  1  0
 17  4  2  0
 18 28  2  0
 18 34  1  0
 19  4  1  0
 19  1  1  0
 20  8  1  0
 21 20  1  0
 22 23  1  1
 24 22  1  0
 25 22  1  0
 26 27  1  6
 26  9  1  0
 28 29  1  0
 30 32  1  1
 30 33  1  0
 31 30  1  0
 34 35  1  1
 34 36  1  0
 37 34  1  0
M  END
$$$$
