out_1137848
     RDKit          3D

 24 25  0  0  1  0  0  0  0  0999 V2000
    6.0036    3.8186    5.7496 S   0  0  0  0  0  0  0  0  0  0  0  0
    5.4769    4.1435   11.5991 F   0  0  0  0  0  0  0  0  0  0  0  0
    4.0689    5.8227    9.9735 F   0  0  0  0  0  0  0  0  0  0  0  0
    9.3917    3.8689    7.0100 O   0  0  0  0  0  0  0  0  0  0  0  0
    9.5060    2.9325    4.9963 O   0  0  0  0  0  0  0  0  0  0  0  0
   10.1033    3.5112    4.8761 H   0  0  0  0  0  0  0  0  0  0  0  0
    7.5177    1.4020   11.3598 N   0  0  0  0  0  0  0  0  0  0  0  0
    3.5545    6.2801    6.5868 N   0  0  0  0  0  0  0  0  0  0  0  0
    7.4898    2.0214    7.8425 N   0  0  0  0  0  0  0  0  0  0  0  0
    7.7834    1.3958    8.3879 H   0  0  0  0  0  0  0  0  0  0  0  0
    7.0507    2.1567   10.6385 C   0  0  0  0  0  0  0  0  0  0  0  0
    4.1883    5.5915    7.2525 C   0  0  0  0  0  0  0  0  0  0  0  0
    9.0272    3.0440    6.2139 C   0  0  0  0  0  0  0  0  0  0  0  0
    7.9414    2.0070    6.4737 C   0  0  2  0  0  0  0  0  0  0  0  0
    8.3328    1.1052    6.2932 H   0  0  0  0  0  0  0  0  0  0  0  0
    6.7905    2.2129    5.5025 C   0  0  1  0  0  0  0  0  0  0  0  0
    6.1209    1.4954    5.6311 H   0  0  0  0  0  0  0  0  0  0  0  0
    7.1294    2.1526    4.5742 H   0  0  0  0  0  0  0  0  0  0  0  0
    5.8640    3.8266    7.4978 C   0  0  0  0  0  0  0  0  0  0  0  0
    6.6258    2.9651    8.3332 C   0  0  0  0  0  0  0  0  0  0  0  0
    6.4240    3.0709    9.7311 C   0  0  0  0  0  0  0  0  0  0  0  0
    5.5809    4.0387   10.2728 C   0  0  0  0  0  0  0  0  0  0  0  0
    4.8680    4.8750    9.4594 C   0  0  0  0  0  0  0  0  0  0  0  0
    4.9913    4.7470    8.0833 C   0  0  0  0  0  0  0  0  0  0  0  0
  1 19  1  0
  5 13  1  0
  6  5  1  0
  8 12  3  0
  9 20  1  0
  9 10  1  0
 11  7  3  0
 12 24  1  0
 13 14  1  0
 13  4  2  0
 14 15  1  6
 14  9  1  0
 16 17  1  6
 16  1  1  0
 16 14  1  0
 18 16  1  0
 19 24  1  0
 19 20  2  0
 20 21  1  0
 21 22  2  0
 21 11  1  0
 22  2  1  0
 23  3  1  0
 23 22  1  0
 24 23  2  0
M  END
$$$$
