out_1007848
     RDKit          3D

 64 70  0  0  1  0  0  0  0  0999 V2000
    3.3385    9.5136    8.4813 S   0  0  1  0  0  0  0  0  0  0  0  0
    4.3435   10.5161    8.5756 O   0  0  0  0  0  0  0  0  0  0  0  0
    1.9999    9.8842    8.1466 O   0  0  0  0  0  0  0  0  0  0  0  0
    2.0288    5.4881    6.2665 O   0  0  0  0  0  0  0  0  0  0  0  0
    3.8057    8.4376    7.3098 N   0  0  0  0  0  0  0  0  0  0  0  0
    1.6055    7.7260    6.0892 C   0  0  0  0  0  0  0  0  0  0  0  0
    2.0340    1.0101   11.6943 C   0  0  0  0  0  0  0  0  0  0  0  0
    1.8478    0.2806   12.2396 H   0  0  0  0  0  0  0  0  0  0  0  0
    1.3432    2.1825   11.8717 C   0  0  0  0  0  0  0  0  0  0  0  0
    0.7031    2.2398   12.5436 H   0  0  0  0  0  0  0  0  0  0  0  0
    1.5837    3.2658   11.0767 C   0  0  0  0  0  0  0  0  0  0  0  0
    1.0896    4.0454   11.1935 H   0  0  0  0  0  0  0  0  0  0  0  0
    2.5823    3.2048   10.0761 C   0  0  0  0  0  0  0  0  0  0  0  0
    2.8875    4.3150    9.2488 C   0  0  0  0  0  0  0  0  0  0  0  0
    2.4188    5.1092    9.3646 H   0  0  0  0  0  0  0  0  0  0  0  0
    3.8573    4.2442    8.2824 C   0  0  0  0  0  0  0  0  0  0  0  0
    4.2036    5.4313    7.4098 C   0  0  2  0  0  0  0  0  0  0  0  0
    4.6750    5.0872    6.6237 H   0  0  0  0  0  0  0  0  0  0  0  0
    5.1428    6.4524    8.0983 C   0  0  2  0  0  0  0  0  0  0  0  0
    4.8035    6.6293    9.0008 H   0  0  0  0  0  0  0  0  0  0  0  0
    5.1577    7.7724    7.3167 C   0  0  2  0  0  0  0  0  0  0  0  0
    5.3335    7.5247    6.3843 H   0  0  0  0  0  0  0  0  0  0  0  0
    3.2653    8.6568   10.0157 C   0  0  0  0  0  0  0  0  0  0  0  0
    4.3173    8.7130   10.9070 C   0  0  0  0  0  0  0  0  0  0  0  0
    5.0746    9.2168   10.7171 H   0  0  0  0  0  0  0  0  0  0  0  0
    4.2176    8.0005   12.0852 C   0  0  0  0  0  0  0  0  0  0  0  0
    4.9163    8.0493   12.6968 H   0  0  0  0  0  0  0  0  0  0  0  0
    3.1306    7.2258   12.3875 C   0  0  0  0  0  0  0  0  0  0  0  0
    3.0729    6.4304   13.6723 C   0  0  2  0  0  0  0  0  0  0  0  0
    2.5045    6.8794   14.3007 H   0  0  0  0  0  0  0  0  0  0  0  0
    3.9570    6.3511   14.0398 H   0  0  0  0  0  0  0  0  0  0  0  0
    2.7214    5.5557   13.4916 H   0  0  0  0  0  0  0  0  0  0  0  0
    6.2831    8.6666    7.7143 C   0  0  0  0  0  0  0  0  0  0  0  0
    6.2508    9.5596    7.4544 H   0  0  0  0  0  0  0  0  0  0  0  0
    7.3220    8.2555    8.4152 C   0  0  0  0  0  0  0  0  0  0  0  0
    7.9901    8.8740    8.6058 H   0  0  0  0  0  0  0  0  0  0  0  0
    7.4925    6.8769    8.9146 C   0  0  2  0  0  0  0  0  0  0  0  0
    7.3159    6.8562    9.8673 H   0  0  0  0  0  0  0  0  0  0  0  0
    8.4099    6.5951    8.7734 H   0  0  0  0  0  0  0  0  0  0  0  0
    6.5595    5.9119    8.2113 C   0  0  1  0  0  0  0  0  0  0  0  0
    6.5420    5.0738    8.6991 H   0  0  0  0  0  0  0  0  0  0  0  0
    6.9023    5.7302    7.3227 H   0  0  0  0  0  0  0  0  0  0  0  0
    3.0205    6.1791    6.9222 C   0  0  0  0  0  0  0  0  0  0  0  0
    2.8167    7.5089    6.8566 C   0  0  0  0  0  0  0  0  0  0  0  0
    1.1648    6.4450    5.7681 C   0  0  0  0  0  0  0  0  0  0  0  0
    0.0507    6.1718    5.0131 C   0  0  0  0  0  0  0  0  0  0  0  0
   -0.2177    5.3007    4.8283 H   0  0  0  0  0  0  0  0  0  0  0  0
   -0.6454    7.2636    4.5451 C   0  0  0  0  0  0  0  0  0  0  0  0
   -1.4044    7.1307    4.0240 H   0  0  0  0  0  0  0  0  0  0  0  0
   -0.2370    8.5592    4.8336 C   0  0  0  0  0  0  0  0  0  0  0  0
   -0.7311    9.2754    4.5052 H   0  0  0  0  0  0  0  0  0  0  0  0
    0.8806    8.8081    5.5924 C   0  0  0  0  0  0  0  0  0  0  0  0
    1.1473    9.6816    5.7715 H   0  0  0  0  0  0  0  0  0  0  0  0
    2.9863    0.9016   10.7329 C   0  0  0  0  0  0  0  0  0  0  0  0
    3.4367    0.0952   10.6190 H   0  0  0  0  0  0  0  0  0  0  0  0
    3.2977    2.0007    9.9028 C   0  0  0  0  0  0  0  0  0  0  0  0
    4.2692    1.9434    8.8940 C   0  0  0  0  0  0  0  0  0  0  0  0
    4.7353    1.1516    8.7518 H   0  0  0  0  0  0  0  0  0  0  0  0
    4.5412    3.0267    8.1201 C   0  0  0  0  0  0  0  0  0  0  0  0
    5.1970    2.9608    7.4639 H   0  0  0  0  0  0  0  0  0  0  0  0
    2.1495    7.8956   10.3018 C   0  0  0  0  0  0  0  0  0  0  0  0
    1.4394    7.8590    9.7022 H   0  0  0  0  0  0  0  0  0  0  0  0
    2.1005    7.1917   11.4822 C   0  0  0  0  0  0  0  0  0  0  0  0
    1.3484    6.6793   11.6723 H   0  0  0  0  0  0  0  0  0  0  0  0
  1  2  2  0
  1 23  1  0
  3  1  2  0
  4 43  1  0
  5 21  1  0
  1  5  1  6
  6 44  1  0
  7  9  2  0
  7  8  1  0
  9 10  1  0
 11 12  1  0
 11  9  1  0
 13 11  2  0
 14 15  1  0
 14 13  1  0
 16 14  2  0
 17 18  1  6
 17 19  1  0
 17 16  1  0
 19 40  1  0
 19 20  1  1
 21 22  1  6
 21 33  1  0
 21 19  1  0
 23 61  1  0
 23 24  2  0
 24 26  1  0
 25 24  1  0
 26 28  2  0
 26 27  1  0
 28 29  1  0
 29 31  1  1
 29 30  1  0
 32 29  1  0
 33 35  2  0
 34 33  1  0
 35 36  1  0
 35 37  1  0
 37 38  1  1
 39 37  1  0
 40 41  1  1
 40 37  1  0
 42 40  1  0
 43 17  1  0
 44 43  2  0
 44  5  1  0
 45  6  2  0
 45  4  1  0
 46 45  1  0
 47 46  1  0
 48 50  1  0
 48 46  2  0
 49 48  1  0
 50 52  2  0
 51 50  1  0
 52 53  1  0
 52  6  1  0
 54  7  1  0
 55 54  1  0
 56 13  1  0
 56 54  2  0
 57 56  1  0
 58 57  1  0
 59 16  1  0
 59 57  2  0
 60 59  1  0
 61 63  2  0
 62 61  1  0
 63 64  1  0
 63 28  1  0
M  END
$$$$
