out_1003495
     RDKit          3D

 23 24  0  0  1  0  0  0  0  0999 V2000
   -4.5215    3.6115   12.4072 C   0  0  0  0  0  0  0  0  0  0  0  0
   -4.3464    4.2852   13.5542 C   0  0  0  0  0  0  0  0  0  0  0  0
   -4.7669    5.1345   13.6198 H   0  0  0  0  0  0  0  0  0  0  0  0
   -3.5978    3.8581   14.6653 C   0  0  0  0  0  0  0  0  0  0  0  0
   -3.4709    4.4122   15.4278 H   0  0  0  0  0  0  0  0  0  0  0  0
   -3.0521    2.5697   14.5881 C   0  0  0  0  0  0  0  0  0  0  0  0
   -2.5350    2.2416   15.3146 H   0  0  0  0  0  0  0  0  0  0  0  0
   -3.2525    1.7482   13.4605 C   0  0  0  0  0  0  0  0  0  0  0  0
   -3.9863    2.3208   12.3714 C   0  0  0  0  0  0  0  0  0  0  0  0
   -4.2014    1.4237   11.2409 C   0  0  0  0  0  0  0  0  0  0  0  0
   -4.6861    1.7407   10.4868 H   0  0  0  0  0  0  0  0  0  0  0  0
   -3.6988    0.0700   11.2327 C   0  0  0  0  0  0  0  0  0  0  0  0
   -3.8673   -0.5075   10.4952 H   0  0  0  0  0  0  0  0  0  0  0  0
   -2.9705   -0.3688   12.3135 C   0  0  0  0  0  0  0  0  0  0  0  0
   -2.6154   -1.2492   12.3044 H   0  0  0  0  0  0  0  0  0  0  0  0
   -2.7508    0.4022   13.3750 C   0  0  0  0  0  0  0  0  0  0  0  0
   -2.2462    0.0533   14.0985 H   0  0  0  0  0  0  0  0  0  0  0  0
   -5.2171    4.1934   11.2658 C   0  0  0  0  0  0  0  0  0  0  0  0
   -6.4643    5.0726   11.4974 C   0  0  1  0  0  0  0  0  0  0  0  0
   -6.6986    5.0634   12.4506 H   0  0  0  0  0  0  0  0  0  0  0  0
   -6.2755    5.9930   11.2186 H   0  0  0  0  0  0  0  0  0  0  0  0
   -7.2158    4.7211   10.9754 H   0  0  0  0  0  0  0  0  0  0  0  0
   -4.8009    4.1071   10.1188 O   0  0  0  0  0  0  0  0  0  0  0  0
  1  2  2  0
  2  3  1  0
  2  4  1  0
  4  5  1  0
  6  4  2  0
  6  7  1  0
  8  6  1  0
  9  1  1  0
  9  8  2  0
 10  9  1  0
 11 10  1  0
 12 10  2  0
 12 14  1  0
 13 12  1  0
 14 16  2  0
 15 14  1  0
 16  8  1  0
 16 17  1  0
 18 19  1  0
 18  1  1  0
 19 20  1  1
 21 19  1  0
 22 19  1  0
 23 18  2  0
M  END
$$$$
