out_511302
     RDKit          3D

 41 43  0  0  0  0  0  0  0  0999 V2000
    8.7630    7.9356    4.0342 C   0  0  0  0  0  0  0  0  0  0  0  0
    8.6615    8.8383    4.3150 H   0  0  0  0  0  0  0  0  0  0  0  0
    8.3316    6.8872    4.8430 C   0  0  0  0  0  0  0  0  0  0  0  0
    7.9172    7.0786    5.6764 H   0  0  0  0  0  0  0  0  0  0  0  0
    8.4974    5.5665    4.4505 C   0  0  0  0  0  0  0  0  0  0  0  0
    8.2115    4.8668    5.0260 H   0  0  0  0  0  0  0  0  0  0  0  0
    9.0745    5.2576    3.2304 C   0  0  0  0  0  0  0  0  0  0  0  0
    9.1941    4.3533    2.9649 H   0  0  0  0  0  0  0  0  0  0  0  0
   10.3362    5.2293    0.1929 C   0  0  0  0  0  0  0  0  0  0  0  0
   10.1746    4.3314    0.4598 H   0  0  0  0  0  0  0  0  0  0  0  0
   10.8722    5.5154   -1.0523 C   0  0  0  0  0  0  0  0  0  0  0  0
   11.0784    4.8031   -1.6462 H   0  0  0  0  0  0  0  0  0  0  0  0
   11.1118    6.8185   -1.4439 C   0  0  0  0  0  0  0  0  0  0  0  0
   11.4899    6.9908   -2.2988 H   0  0  0  0  0  0  0  0  0  0  0  0
   10.8060    7.8851   -0.6006 C   0  0  0  0  0  0  0  0  0  0  0  0
   10.9710    8.7813   -0.8724 H   0  0  0  0  0  0  0  0  0  0  0  0
    9.8439    8.5877    1.7339 C   0  0  1  0  0  0  0  0  0  0  0  0
    9.3423    7.6365    2.8128 C   0  0  0  0  0  0  0  0  0  0  0  0
    9.4776    6.3042    2.3991 C   0  0  0  0  0  0  0  0  0  0  0  0
   10.0389    6.2904    1.0460 C   0  0  0  0  0  0  0  0  0  0  0  0
   10.2573    7.6131    0.6401 C   0  0  0  0  0  0  0  0  0  0  0  0
    8.7344    9.5613    1.2739 C   0  0  1  0  0  0  0  0  0  0  0  0
    8.5561   10.2097    2.0005 H   0  0  0  0  0  0  0  0  0  0  0  0
    9.0592   10.0693    0.4889 H   0  0  0  0  0  0  0  0  0  0  0  0
    7.4378    8.8660    0.9072 C   0  0  1  0  0  0  0  0  0  0  0  0
    7.6110    8.2283    0.1704 H   0  0  0  0  0  0  0  0  0  0  0  0
    7.1198    8.3468    1.6865 H   0  0  0  0  0  0  0  0  0  0  0  0
    6.3626    9.8191    0.4856 C   0  0  0  0  0  0  0  0  0  0  0  0
   11.0346    9.4540    2.1979 C   0  0  1  0  0  0  0  0  0  0  0  0
   11.2772   10.0781    1.4690 H   0  0  0  0  0  0  0  0  0  0  0  0
   10.7486    9.9969    2.9739 H   0  0  0  0  0  0  0  0  0  0  0  0
   12.2687    8.6542    2.5886 C   0  0  1  0  0  0  0  0  0  0  0  0
   12.0363    8.0330    3.3237 H   0  0  0  0  0  0  0  0  0  0  0  0
   12.5659    8.1120    1.8144 H   0  0  0  0  0  0  0  0  0  0  0  0
   13.3933    9.5440    3.0304 C   0  0  0  0  0  0  0  0  0  0  0  0
    6.4486   11.0253    0.6109 O   0  0  0  0  0  0  0  0  0  0  0  0
    5.3014    9.2142   -0.0123 O   0  0  0  0  0  0  0  0  0  0  0  0
    4.7157    9.7862   -0.1996 H   0  0  0  0  0  0  0  0  0  0  0  0
   13.3578   10.7587    2.9308 O   0  0  0  0  0  0  0  0  0  0  0  0
   14.4288    8.8872    3.5092 O   0  0  0  0  0  0  0  0  0  0  0  0
   15.0182    9.4330    3.7521 H   0  0  0  0  0  0  0  0  0  0  0  0
  1  2  1  0
  1  3  2  0
  3  4  1  0
  5  3  1  0
  5  6  1  0
  7  5  2  0
  8  7  1  0
  9 10  1  0
  9 20  2  0
 11  9  1  0
 12 11  1  0
 13 11  2  0
 13 15  1  0
 14 13  1  0
 15 21  2  0
 16 15  1  0
 17 29  1  0
 17 18  1  1
 18  1  1  0
 19 18  2  0
 19  7  1  0
 20 19  1  0
 21 20  1  0
 21 17  1  0
 22 17  1  0
 22 23  1  1
 24 22  1  0
 25 22  1  0
 25 27  1  1
 26 25  1  0
 28 36  2  0
 28 25  1  0
 29 32  1  0
 29 31  1  1
 30 29  1  0
 32 35  1  0
 32 33  1  1
 34 32  1  0
 35 40  1  0
 37 28  1  0
 38 37  1  0
 39 35  2  0
 40 41  1  0
M  END
$$$$
