out_1010959
     RDKit          3D

 48 50  0  0  1  0  0  0  0  0999 V2000
   13.2575    1.3779   10.1306 Cl  0  0  0  0  0  0  0  0  0  0  0  0
    6.2687    7.5206    5.7278 O   0  0  0  0  0  0  0  0  0  0  0  0
    6.3377    6.7908    7.8391 O   0  0  0  0  0  0  0  0  0  0  0  0
    5.5670    5.9629    2.7507 O   0  0  0  0  0  0  0  0  0  0  0  0
    9.8711    5.7417    2.6172 F   0  0  0  0  0  0  0  0  0  0  0  0
    8.2806    4.3961    2.1881 F   0  0  0  0  0  0  0  0  0  0  0  0
    9.5451    4.0541    3.8474 F   0  0  0  0  0  0  0  0  0  0  0  0
    6.4195    6.6332    6.5251 C   0  0  0  0  0  0  0  0  0  0  0  0
    5.4383    4.3289    6.5603 C   0  0  1  0  0  0  0  0  0  0  0  0
    5.6084    3.3945    6.3620 H   0  0  0  0  0  0  0  0  0  0  0  0
    5.3137    4.4125    7.5185 H   0  0  0  0  0  0  0  0  0  0  0  0
    6.6600    5.1705    6.1305 C   0  0  1  0  0  0  0  0  0  0  0  0
    6.7975    5.0733    4.5887 C   0  0  1  0  0  0  0  0  0  0  0  0
    6.9312    4.1258    4.3771 H   0  0  0  0  0  0  0  0  0  0  0  0
    7.8446    4.6163    6.8061 C   0  0  0  0  0  0  0  0  0  0  0  0
    4.1846    4.7625    5.8591 C   0  0  0  0  0  0  0  0  0  0  0  0
    4.2223    5.3022    4.5767 C   0  0  0  0  0  0  0  0  0  0  0  0
    5.5215    5.5054    3.8772 C   0  0  0  0  0  0  0  0  0  0  0  0
    8.7562    4.0366    7.3301 C   0  0  0  0  0  0  0  0  0  0  0  0
    3.0420    5.6998    3.9418 C   0  0  0  0  0  0  0  0  0  0  0  0
    3.0830    6.0734    3.0910 H   0  0  0  0  0  0  0  0  0  0  0  0
    9.8383    3.3546    7.9791 C   0  0  0  0  0  0  0  0  0  0  0  0
    8.0237    5.8274    4.0387 C   0  0  1  0  0  0  0  0  0  0  0  0
    7.7142    6.5896    3.5243 H   0  0  0  0  0  0  0  0  0  0  0  0
    8.5395    6.1685    4.7861 H   0  0  0  0  0  0  0  0  0  0  0  0
    2.9538    4.6231    6.4845 C   0  0  0  0  0  0  0  0  0  0  0  0
    2.9065    4.2730    7.3448 H   0  0  0  0  0  0  0  0  0  0  0  0
    6.0254    8.1268    8.3080 C   0  0  2  0  0  0  0  0  0  0  0  0
    5.2045    8.4224    7.9089 H   0  0  0  0  0  0  0  0  0  0  0  0
    6.7349    8.7256    8.0624 H   0  0  0  0  0  0  0  0  0  0  0  0
    5.9322    8.1168    9.2634 H   0  0  0  0  0  0  0  0  0  0  0  0
    8.9143    5.0080    3.1831 C   0  0  1  0  0  0  0  0  0  0  0  0
    1.8136    5.5468    4.5606 C   0  0  0  0  0  0  0  0  0  0  0  0
   11.9348    2.1045    9.2681 C   0  0  0  0  0  0  0  0  0  0  0  0
   11.1427    3.5874    7.6248 C   0  0  0  0  0  0  0  0  0  0  0  0
   11.3248    4.1878    6.9379 H   0  0  0  0  0  0  0  0  0  0  0  0
   12.1941    2.9561    8.2599 C   0  0  0  0  0  0  0  0  0  0  0  0
   13.0706    3.1174    7.9949 H   0  0  0  0  0  0  0  0  0  0  0  0
    9.6144    2.4514    8.9709 C   0  0  0  0  0  0  0  0  0  0  0  0
    8.7391    2.2521    9.2159 H   0  0  0  0  0  0  0  0  0  0  0  0
    1.8030    5.0031    5.8323 C   0  0  0  0  0  0  0  0  0  0  0  0
    0.9867    4.8900    6.2633 H   0  0  0  0  0  0  0  0  0  0  0  0
    0.5367    5.9804    3.8909 C   0  0  2  0  0  0  0  0  0  0  0  0
    0.0752    6.6042    4.4560 H   0  0  0  0  0  0  0  0  0  0  0  0
   -0.0203    5.2137    3.7384 H   0  0  0  0  0  0  0  0  0  0  0  0
    0.7419    6.3993    3.0520 H   0  0  0  0  0  0  0  0  0  0  0  0
   10.6517    1.8259    9.6194 C   0  0  0  0  0  0  0  0  0  0  0  0
   10.4766    1.2142   10.2979 H   0  0  0  0  0  0  0  0  0  0  0  0
  2  8  2  0
  3 28  1  0
  4 18  2  0
 32  5  1  6
  6 32  1  0
  8  3  1  0
  9 11  1  1
 10  9  1  0
 12  8  1  0
 12  9  1  0
 12 15  1  1
 13 14  1  1
 13 12  1  0
 15 19  3  0
 16 26  2  0
 16  9  1  0
 17 16  1  0
 18 17  1  0
 18 13  1  0
 19 22  1  0
 20 33  1  0
 20 17  2  0
 21 20  1  0
 22 39  2  0
 23 13  1  0
 23 25  1  1
 24 23  1  0
 26 27  1  0
 28 31  1  1
 29 28  1  0
 30 28  1  0
 32  7  1  0
 32 23  1  0
 33 41  2  0
 34 47  2  0
 34  1  1  0
 35 22  1  0
 35 37  2  0
 36 35  1  0
 37 34  1  0
 38 37  1  0
 39 40  1  0
 39 47  1  0
 41 42  1  0
 41 26  1  0
 43 44  1  1
 43 33  1  0
 45 43  1  0
 46 43  1  0
 47 48  1  0
M  END
$$$$
