out_1001252
     RDKit          3D

 41 44  0  0  1  0  0  0  0  0999 V2000
    7.8852    2.4629   10.1622 Br  0  0  0  0  0  0  0  0  0  0  0  0
    4.2536    3.7258    4.5635 N   0  0  0  0  0  0  0  0  0  0  0  0
    5.0750    3.4217    4.4799 H   0  0  0  0  0  0  0  0  0  0  0  0
    6.6242    3.0288    8.8589 C   0  0  0  0  0  0  0  0  0  0  0  0
    6.0168    4.2638    8.9890 C   0  0  0  0  0  0  0  0  0  0  0  0
    6.2097    4.8215    9.7338 H   0  0  0  0  0  0  0  0  0  0  0  0
    5.1258    4.6730    8.0174 C   0  0  0  0  0  0  0  0  0  0  0  0
    4.7223    5.5302    8.0894 H   0  0  0  0  0  0  0  0  0  0  0  0
    4.8037    3.8575    6.9326 C   0  0  0  0  0  0  0  0  0  0  0  0
    3.8862    4.3645    5.8405 C   0  0  2  0  0  0  0  0  0  0  0  0
    4.0709    5.3416    5.7386 H   0  0  0  0  0  0  0  0  0  0  0  0
    2.3878    4.2243    6.1265 C   0  0  1  0  0  0  0  0  0  0  0  0
    1.9207    4.6940    5.3774 H   0  0  0  0  0  0  0  0  0  0  0  0
    1.9239    2.7842    6.0675 C   0  0  0  0  0  0  0  0  0  0  0  0
    1.7693    2.1681    4.8174 C   0  0  0  0  0  0  0  0  0  0  0  0
    1.2669    0.8738    4.7489 C   0  0  0  0  0  0  0  0  0  0  0  0
    1.1522    0.4599    3.9012 H   0  0  0  0  0  0  0  0  0  0  0  0
    0.9295    0.1750    5.9063 C   0  0  0  0  0  0  0  0  0  0  0  0
    0.5765   -0.7052    5.8469 H   0  0  0  0  0  0  0  0  0  0  0  0
    6.3329    2.1954    7.8046 C   0  0  0  0  0  0  0  0  0  0  0  0
    6.7551    1.3481    7.7282 H   0  0  0  0  0  0  0  0  0  0  0  0
    5.4103    2.6121    6.8542 C   0  0  0  0  0  0  0  0  0  0  0  0
    5.1903    2.0321    6.1347 H   0  0  0  0  0  0  0  0  0  0  0  0
    2.1708    2.8698    3.5598 C   0  0  0  0  0  0  0  0  0  0  0  0
    3.3864    3.5697    3.4722 C   0  0  0  0  0  0  0  0  0  0  0  0
    3.8144    4.0061    2.2143 C   0  0  0  0  0  0  0  0  0  0  0  0
    4.6484    4.4539    2.1360 H   0  0  0  0  0  0  0  0  0  0  0  0
    3.0524    3.8001    1.0875 C   0  0  0  0  0  0  0  0  0  0  0  0
    3.3788    4.0795    0.2404 H   0  0  0  0  0  0  0  0  0  0  0  0
    1.8171    3.1906    1.1780 C   0  0  0  0  0  0  0  0  0  0  0  0
    1.2691    3.0902    0.4082 H   0  0  0  0  0  0  0  0  0  0  0  0
    1.3951    2.7297    2.4092 C   0  0  0  0  0  0  0  0  0  0  0  0
    0.5482    2.3032    2.4749 H   0  0  0  0  0  0  0  0  0  0  0  0
    1.1123    0.7675    7.1316 C   0  0  0  0  0  0  0  0  0  0  0  0
    0.9098    0.2834    7.9234 H   0  0  0  0  0  0  0  0  0  0  0  0
    1.5881    2.0637    7.2200 C   0  0  0  0  0  0  0  0  0  0  0  0
    1.6877    2.4701    8.0739 H   0  0  0  0  0  0  0  0  0  0  0  0
    1.9854    4.9655    7.4029 C   0  0  2  0  0  0  0  0  0  0  0  0
    1.0263    4.8441    7.5632 H   0  0  0  0  0  0  0  0  0  0  0  0
    2.1810    5.9209    7.3019 H   0  0  0  0  0  0  0  0  0  0  0  0
    2.4913    4.6078    8.1623 H   0  0  0  0  0  0  0  0  0  0  0  0
  2 10  1  0
  3  2  1  0
  4  5  2  0
  4  1  1  0
  5  6  1  0
  7  8  1  0
  7  5  1  0
  9  7  2  0
 10 11  1  6
 10 12  1  0
 10  9  1  0
 12 13  1  6
 12 38  1  0
 14 12  1  0
 14 36  2  0
 15 14  1  0
 16 15  2  0
 16 18  1  0
 17 16  1  0
 18 34  2  0
 19 18  1  0
 20  4  1  0
 21 20  1  0
 22  9  1  0
 22 20  2  0
 23 22  1  0
 24 15  1  0
 25 24  2  0
 25  2  1  0
 26 25  1  0
 27 26  1  0
 28 30  1  0
 28 26  2  0
 29 28  1  0
 30 32  2  0
 31 30  1  0
 32 33  1  0
 32 24  1  0
 34 36  1  0
 34 35  1  0
 36 37  1  0
 38 39  1  1
 38 41  1  0
 40 38  1  0
M  END
$$$$
