out_1003272
     RDKit          3D

 29 29  0  0  1  0  0  0  0  0999 V2000
   13.9300    6.6078   12.7327 C   0  0  0  0  0  0  0  0  0  0  0  0
   14.3464    6.7801   11.4548 C   0  0  0  0  0  0  0  0  0  0  0  0
   15.2668    6.9603   11.3035 H   0  0  0  0  0  0  0  0  0  0  0  0
   13.3856    6.7013   10.2042 C   0  0  1  0  0  0  0  0  0  0  0  0
   13.2058    7.6207    9.8815 H   0  0  0  0  0  0  0  0  0  0  0  0
   13.8464    6.2126    9.4780 H   0  0  0  0  0  0  0  0  0  0  0  0
   12.0992    6.0369   10.4874 C   0  0  2  0  0  0  0  0  0  0  0  0
   11.4515    6.5635   11.8670 C   0  0  1  0  0  0  0  0  0  0  0  0
   11.2584    7.5330   11.7970 H   0  0  0  0  0  0  0  0  0  0  0  0
   10.5993    6.0909   12.0397 H   0  0  0  0  0  0  0  0  0  0  0  0
   12.4733    6.3002   13.0788 C   0  0  2  0  0  0  0  0  0  0  0  0
   12.2046    6.8599   13.8501 H   0  0  0  0  0  0  0  0  0  0  0  0
   12.4033    5.3531   13.3547 H   0  0  0  0  0  0  0  0  0  0  0  0
   14.9369    6.6669   13.8725 C   0  0  2  0  0  0  0  0  0  0  0  0
   15.8475    6.5932   13.5095 H   0  0  0  0  0  0  0  0  0  0  0  0
   14.7763    5.9258   14.4934 H   0  0  0  0  0  0  0  0  0  0  0  0
   14.8464    7.5180   14.3482 H   0  0  0  0  0  0  0  0  0  0  0  0
   12.2839    4.4864   10.6119 C   0  0  2  0  0  0  0  0  0  0  0  0
   13.0934    4.3150   11.1738 H   0  0  0  0  0  0  0  0  0  0  0  0
   12.5788    4.0434    9.2517 C   0  0  2  0  0  0  0  0  0  0  0  0
   11.8094    4.2373    8.6735 H   0  0  0  0  0  0  0  0  0  0  0  0
   12.7497    3.0790    9.2525 H   0  0  0  0  0  0  0  0  0  0  0  0
   13.3661    4.5173    8.9170 H   0  0  0  0  0  0  0  0  0  0  0  0
   11.0916    3.7358   11.2492 C   0  0  2  0  0  0  0  0  0  0  0  0
   10.2605    4.0107   10.8094 H   0  0  0  0  0  0  0  0  0  0  0  0
   11.0434    3.9513   12.2039 H   0  0  0  0  0  0  0  0  0  0  0  0
   11.2168    2.7703   11.1380 H   0  0  0  0  0  0  0  0  0  0  0  0
   11.1621    6.3051    9.3819 O   0  0  0  0  0  0  0  0  0  0  0  0
   11.3594    7.0378    9.0204 H   0  0  0  0  0  0  0  0  0  0  0  0
  1 11  1  0
  1 14  1  0
  2  1  2  0
  3  2  1  0
  4  7  1  0
  4  2  1  0
  4  5  1  6
  6  4  1  0
  7 28  1  6
  7 18  1  0
  7  8  1  0
  8 10  1  1
  8 11  1  0
  9  8  1  0
 11 13  1  1
 11 12  1  0
 14 17  1  1
 14 16  1  0
 15 14  1  0
 18 19  1  1
 18 24  1  0
 20 22  1  1
 20 18  1  0
 21 20  1  0
 23 20  1  0
 24 26  1  1
 25 24  1  0
 27 24  1  0
 29 28  1  0
M  END
$$$$
