out_1784790
     RDKit          3D

 59 61  0  0  0  0  0  0  0  0999 V2000
   -0.7223    9.4073    5.9607 K   0  0  0  0  0  1  0  0  0  0  0  0
    2.8360   11.0449    4.8901 P   0  0  1  0  0  0  0  0  0  0  0  0
    4.1812   11.0290    5.7206 O   0  0  0  0  0  0  0  0  0  0  0  0
    3.2909   10.5033    3.4633 O   0  0  0  0  0  0  0  0  0  0  0  0
    1.7610   10.2653    5.4673 O   0  0  0  0  0  0  0  0  0  0  0  0
    2.5872   12.5260    4.6557 O   0  0  0  0  0  0  0  0  0  0  0  0
    4.6229   10.0910    6.6709 C   0  0  0  0  0  0  0  0  0  0  0  0
    5.0457   10.5733    7.8889 C   0  0  0  0  0  0  0  0  0  0  0  0
    5.6160    9.6399    8.7638 C   0  0  0  0  0  0  0  0  0  0  0  0
    5.9124    9.9316    9.5979 H   0  0  0  0  0  0  0  0  0  0  0  0
    5.7561    8.3039    8.4400 C   0  0  0  0  0  0  0  0  0  0  0  0
    5.2749    7.8663    7.2199 C   0  0  0  0  0  0  0  0  0  0  0  0
    5.3331    6.9620    7.0033 H   0  0  0  0  0  0  0  0  0  0  0  0
    4.7060    8.7550    6.3064 C   0  0  0  0  0  0  0  0  0  0  0  0
    4.2448    8.2572    4.9598 C   0  0  1  0  0  0  0  0  0  0  0  0
    4.3385    7.2907    4.9319 H   0  0  0  0  0  0  0  0  0  0  0  0
    3.3047    8.4653    4.8504 H   0  0  0  0  0  0  0  0  0  0  0  0
    5.0117    8.8542    3.8147 C   0  0  0  0  0  0  0  0  0  0  0  0
    6.2142    8.3175    3.4545 C   0  0  0  0  0  0  0  0  0  0  0  0
    6.5454    7.5882    3.9262 H   0  0  0  0  0  0  0  0  0  0  0  0
    6.9539    8.8348    2.4016 C   0  0  0  0  0  0  0  0  0  0  0  0
    6.4320    9.9219    1.7219 C   0  0  0  0  0  0  0  0  0  0  0  0
    6.9226   10.2680    1.0121 H   0  0  0  0  0  0  0  0  0  0  0  0
    5.2155   10.5344    2.0349 C   0  0  0  0  0  0  0  0  0  0  0  0
    4.5369    9.9646    3.1135 C   0  0  0  0  0  0  0  0  0  0  0  0
    4.9130   12.0669    8.2856 C   0  0  1  0  0  0  0  0  0  0  0  0
    5.7008   12.9459    7.3057 C   0  0  2  0  0  0  0  0  0  0  0  0
    6.6020   12.6211    7.2349 H   0  0  0  0  0  0  0  0  0  0  0  0
    5.7114   13.8502    7.6252 H   0  0  0  0  0  0  0  0  0  0  0  0
    5.2822   12.9167    6.4415 H   0  0  0  0  0  0  0  0  0  0  0  0
    3.4304   12.4636    8.3006 C   0  0  2  0  0  0  0  0  0  0  0  0
    3.0759   12.4130    7.4107 H   0  0  0  0  0  0  0  0  0  0  0  0
    3.3428   13.3620    8.6287 H   0  0  0  0  0  0  0  0  0  0  0  0
    2.9453   11.8666    8.8731 H   0  0  0  0  0  0  0  0  0  0  0  0
    5.4687   12.3138    9.6987 C   0  0  2  0  0  0  0  0  0  0  0  0
    4.9766   11.7888   10.3334 H   0  0  0  0  0  0  0  0  0  0  0  0
    5.3819   13.2454    9.9196 H   0  0  0  0  0  0  0  0  0  0  0  0
    6.3962   12.0649    9.7266 H   0  0  0  0  0  0  0  0  0  0  0  0
    6.4642    7.3374    9.3835 C   0  0  2  0  0  0  0  0  0  0  0  0
    7.0803    6.7967    8.8839 H   0  0  0  0  0  0  0  0  0  0  0  0
    5.8161    6.7734    9.8081 H   0  0  0  0  0  0  0  0  0  0  0  0
    6.9420    7.8352   10.0504 H   0  0  0  0  0  0  0  0  0  0  0  0
    8.2617    8.2066    1.9706 C   0  0  2  0  0  0  0  0  0  0  0  0
    8.9938    8.7336    2.2987 H   0  0  0  0  0  0  0  0  0  0  0  0
    8.2995    8.1697    1.0121 H   0  0  0  0  0  0  0  0  0  0  0  0
    8.3234    7.3179    2.3287 H   0  0  0  0  0  0  0  0  0  0  0  0
    4.7587   11.7479    1.2566 C   0  0  1  0  0  0  0  0  0  0  0  0
    5.5616   11.9910   -0.0214 C   0  0  2  0  0  0  0  0  0  0  0  0
    5.5507   11.1976   -0.5597 H   0  0  0  0  0  0  0  0  0  0  0  0
    6.4672   12.2108    0.2080 H   0  0  0  0  0  0  0  0  0  0  0  0
    5.1693   12.7183   -0.5103 H   0  0  0  0  0  0  0  0  0  0  0  0
    3.2974   11.5982    0.8256 C   0  0  2  0  0  0  0  0  0  0  0  0
    3.1855   10.7678    0.3560 H   0  0  0  0  0  0  0  0  0  0  0  0
    3.0575   12.3275    0.2487 H   0  0  0  0  0  0  0  0  0  0  0  0
    2.7338   11.6040    1.6018 H   0  0  0  0  0  0  0  0  0  0  0  0
    4.8590   13.0042    2.1293 C   0  0  2  0  0  0  0  0  0  0  0  0
    4.7743   13.7840    1.5761 H   0  0  0  0  0  0  0  0  0  0  0  0
    5.7082   13.0178    2.5753 H   0  0  0  0  0  0  0  0  0  0  0  0
    4.1554   12.9964    2.7812 H   0  0  0  0  0  0  0  0  0  0  0  0
  2  5  1  1
  2  3  1  0
  3  7  1  0
  4  2  1  0
  5  1  1  0
  6  2  2  0
  7  8  1  0
 26  8  1  6
  8  9  2  0
  9 10  1  0
 11  9  1  0
 11 39  1  0
 12 11  2  0
 13 12  1  0
 14  7  2  0
 14 12  1  0
 15 14  1  0
 15 16  1  1
 17 15  1  0
 18 15  1  0
 19 18  2  0
 19 20  1  0
 21 19  1  0
 22 24  1  0
 22 21  2  0
 23 22  1  0
 24 25  2  0
 25  4  1  0
 25 18  1  0
 26 31  1  0
 26 35  1  0
 27 29  1  1
 27 26  1  0
 28 27  1  0
 30 27  1  0
 31 33  1  1
 31 34  1  0
 32 31  1  0
 35 38  1  6
 35 37  1  0
 35 36  1  0
 39 41  1  1
 39 42  1  0
 40 39  1  0
 43 44  1  1
 43 46  1  0
 43 21  1  0
 45 43  1  0
 47 24  1  1
 47 56  1  0
 48 50  1  1
 48 47  1  0
 49 48  1  0
 51 48  1  0
 52 47  1  0
 52 55  1  1
 53 52  1  0
 54 52  1  0
 56 58  1  1
 56 59  1  0
 57 56  1  0
M  END
$$$$
