out_1001343
     RDKit          3D

 44 47  0  0  0  0  0  0  0  0999 V2000
    6.8424    4.6067    1.4483 O   0  0  0  0  0  0  0  0  0  0  0  0
    2.0116    9.8569    0.4467 O   0  0  0  0  0  0  0  0  0  0  0  0
    2.1917    6.4654    3.7234 O   0  0  0  0  0  0  0  0  0  0  0  0
    6.0506    4.2658   -1.3011 C   0  0  0  0  0  0  0  0  0  0  0  0
    6.8060    3.7802   -1.0630 H   0  0  0  0  0  0  0  0  0  0  0  0
    5.7123    4.3736   -2.6125 C   0  0  0  0  0  0  0  0  0  0  0  0
    6.2316    3.9536   -3.2593 H   0  0  0  0  0  0  0  0  0  0  0  0
    4.5987    5.1050   -2.9931 C   0  0  0  0  0  0  0  0  0  0  0  0
    4.3665    5.1724   -3.8911 H   0  0  0  0  0  0  0  0  0  0  0  0
    3.8367    5.7338   -2.0285 C   0  0  0  0  0  0  0  0  0  0  0  0
    3.0986    6.2355   -2.2863 H   0  0  0  0  0  0  0  0  0  0  0  0
    4.1550    5.6294   -0.6749 C   0  0  0  0  0  0  0  0  0  0  0  0
    5.2844    4.8702   -0.3084 C   0  0  0  0  0  0  0  0  0  0  0  0
    5.6743    4.5958    1.0949 C   0  0  0  0  0  0  0  0  0  0  0  0
    4.5949    4.0790    1.9460 C   0  0  0  0  0  0  0  0  0  0  0  0
    4.7669    3.2894    2.4072 H   0  0  0  0  0  0  0  0  0  0  0  0
    3.3861    4.6303    2.1241 C   0  0  0  0  0  0  0  0  0  0  0  0
    3.0435    5.9804    1.5889 C   0  0  0  0  0  0  0  0  0  0  0  0
    3.3806    6.4282    0.3103 C   0  0  0  0  0  0  0  0  0  0  0  0
    3.0265    7.7245   -0.1116 C   0  0  0  0  0  0  0  0  0  0  0  0
    3.2520    8.0115   -0.9665 H   0  0  0  0  0  0  0  0  0  0  0  0
    2.3473    8.5704    0.7415 C   0  0  0  0  0  0  0  0  0  0  0  0
    2.0109    8.1529    2.0238 C   0  0  0  0  0  0  0  0  0  0  0  0
    1.5470    8.7219    2.5957 H   0  0  0  0  0  0  0  0  0  0  0  0
    2.3704    6.8912    2.4410 C   0  0  0  0  0  0  0  0  0  0  0  0
    2.4954   10.4129   -0.7621 C   0  0  1  0  0  0  0  0  0  0  0  0
    2.1855   11.3186   -0.8446 H   0  0  0  0  0  0  0  0  0  0  0  0
    3.4556   10.4020   -0.7584 H   0  0  0  0  0  0  0  0  0  0  0  0
    2.1718    9.8961   -1.5045 H   0  0  0  0  0  0  0  0  0  0  0  0
    1.3088    7.1395    4.5586 C   0  0  1  0  0  0  0  0  0  0  0  0
    1.2976    6.7169    5.4200 H   0  0  0  0  0  0  0  0  0  0  0  0
    1.5905    8.0519    4.6523 H   0  0  0  0  0  0  0  0  0  0  0  0
    0.4279    7.1142    4.1789 H   0  0  0  0  0  0  0  0  0  0  0  0
    2.3581    3.8871    2.9097 C   0  0  0  0  0  0  0  0  0  0  0  0
    2.7050    3.0992    3.9989 C   0  0  0  0  0  0  0  0  0  0  0  0
    3.5975    3.0386    4.2567 H   0  0  0  0  0  0  0  0  0  0  0  0
    1.7429    2.4065    4.7020 C   0  0  0  0  0  0  0  0  0  0  0  0
    1.9887    1.9006    5.4425 H   0  0  0  0  0  0  0  0  0  0  0  0
    0.4328    2.4553    4.3224 C   0  0  0  0  0  0  0  0  0  0  0  0
   -0.2105    1.9789    4.7967 H   0  0  0  0  0  0  0  0  0  0  0  0
    0.0719    3.2137    3.2359 C   0  0  0  0  0  0  0  0  0  0  0  0
   -0.8193    3.2457    2.9734 H   0  0  0  0  0  0  0  0  0  0  0  0
    1.0236    3.9334    2.5254 C   0  0  0  0  0  0  0  0  0  0  0  0
    0.7689    4.4451    1.7923 H   0  0  0  0  0  0  0  0  0  0  0  0
  2 22  1  0
  3 30  1  0
  4  5  1  0
  4 13  2  0
  6  4  1  0
  7  6  1  0
  8  6  2  0
  8 10  1  0
  9  8  1  0
 10 12  2  0
 11 10  1  0
 12 13  1  0
 12 19  1  0
 13 14  1  0
 14  1  2  0
 14 15  1  0
 15 17  2  0
 15 16  1  0
 17 34  1  0
 18 17  1  0
 18 25  1  0
 19 18  2  0
 20 19  1  0
 20 22  2  0
 21 20  1  0
 22 23  1  0
 23 25  2  0
 23 24  1  0
 25  3  1  0
 26 28  1  1
 26  2  1  0
 27 26  1  0
 29 26  1  0
 30 32  1  1
 30 31  1  0
 33 30  1  0
 34 35  2  0
 35 36  1  0
 35 37  1  0
 37 38  1  0
 39 37  2  0
 39 40  1  0
 41 39  1  0
 42 41  1  0
 43 34  1  0
 43 41  2  0
 44 43  1  0
M  END
$$$$
