out_1130243
     RDKit          3D

 52 54  0  0  1  0  0  0  0  0999 V2000
    2.2753   12.6843   16.8037 O   0  0  0  0  0  0  0  0  0  0  0  0
    2.8209   12.1038   16.5341 H   0  0  0  0  0  0  0  0  0  0  0  0
    6.0245   11.2917    9.4367 O   0  0  0  0  0  0  0  0  0  0  0  0
    5.4846   10.8395    8.9797 H   0  0  0  0  0  0  0  0  0  0  0  0
    5.8913   15.4519   15.0109 O   0  0  0  0  0  0  0  0  0  0  0  0
    4.6723   14.9775   13.0480 C   0  0  0  0  0  0  0  0  0  0  0  0
    1.6103   13.2904   15.6627 C   0  0  2  0  0  0  0  0  0  0  0  0
    4.8208   15.1236   14.5177 C   0  0  0  0  0  0  0  0  0  0  0  0
    5.8393   14.8445   10.7773 C   0  0  2  0  0  0  0  0  0  0  0  0
    3.4735   14.6621   12.5007 C   0  0  0  0  0  0  0  0  0  0  0  0
    5.9795   13.3062   10.7103 C   0  0  1  0  0  0  0  0  0  0  0  0
    6.9071   13.0668   10.9556 H   0  0  0  0  0  0  0  0  0  0  0  0
    5.3796   12.9081   11.3903 H   0  0  0  0  0  0  0  0  0  0  0  0
    2.6927   13.8457   14.7214 C   0  0  2  0  0  0  0  0  0  0  0  0
    3.2917   13.0668   14.5422 H   0  0  0  0  0  0  0  0  0  0  0  0
    1.3326   15.5802   13.3381 C   0  0  2  0  0  0  0  0  0  0  0  0
    1.7262   16.2547   13.9310 H   0  0  0  0  0  0  0  0  0  0  0  0
    0.4413   15.3393   13.6656 H   0  0  0  0  0  0  0  0  0  0  0  0
    1.2600   15.9443   12.4309 H   0  0  0  0  0  0  0  0  0  0  0  0
    5.9109   15.2743   12.2497 C   0  0  2  0  0  0  0  0  0  0  0  0
    6.6788   14.8159   12.6749 H   0  0  0  0  0  0  0  0  0  0  0  0
    6.0858   16.2479   12.2865 H   0  0  0  0  0  0  0  0  0  0  0  0
    3.3165   14.6610   10.9888 C   0  0  1  0  0  0  0  0  0  0  0  0
    3.2295   13.7261   10.6777 H   0  0  0  0  0  0  0  0  0  0  0  0
    2.4793   15.1354   10.7543 H   0  0  0  0  0  0  0  0  0  0  0  0
    5.6628   12.6802    9.3712 C   0  0  2  0  0  0  0  0  0  0  0  0
    4.6980   12.7722    9.1721 H   0  0  0  0  0  0  0  0  0  0  0  0
    6.1757   13.1325    8.6554 H   0  0  0  0  0  0  0  0  0  0  0  0
    4.4715   15.3153   10.2493 C   0  0  1  0  0  0  0  0  0  0  0  0
    4.4056   16.2978   10.3481 H   0  0  0  0  0  0  0  0  0  0  0  0
    4.4040   15.1014    9.2844 H   0  0  0  0  0  0  0  0  0  0  0  0
    3.6033   14.8853   15.3706 C   0  0  2  0  0  0  0  0  0  0  0  0
    3.1074   15.7336   15.4847 H   0  0  0  0  0  0  0  0  0  0  0  0
    3.8820   14.5690   16.2668 H   0  0  0  0  0  0  0  0  0  0  0  0
    6.9630   15.5174    9.9953 C   0  0  2  0  0  0  0  0  0  0  0  0
    6.8988   16.4903   10.1022 H   0  0  0  0  0  0  0  0  0  0  0  0
    6.8828   15.2872    9.0456 H   0  0  0  0  0  0  0  0  0  0  0  0
    7.8280   15.2079   10.3356 H   0  0  0  0  0  0  0  0  0  0  0  0
    2.2374   14.3170   13.3171 C   0  0  1  0  0  0  0  0  0  0  0  0
    0.6894   14.3258   16.2946 C   0  0  2  0  0  0  0  0  0  0  0  0
    0.1883   13.9119   17.0294 H   0  0  0  0  0  0  0  0  0  0  0  0
    0.0626   14.6619   15.6201 H   0  0  0  0  0  0  0  0  0  0  0  0
    1.2241   15.0697   16.6428 H   0  0  0  0  0  0  0  0  0  0  0  0
    0.3382   12.6263   13.5572 C   0  0  1  0  0  0  0  0  0  0  0  0
   -0.0977   11.8568   13.1115 H   0  0  0  0  0  0  0  0  0  0  0  0
   -0.3427   13.3364   13.6691 H   0  0  0  0  0  0  0  0  0  0  0  0
    0.8357   12.1903   14.9336 C   0  0  1  0  0  0  0  0  0  0  0  0
    1.4203   11.3991   14.8290 H   0  0  0  0  0  0  0  0  0  0  0  0
    0.0592   11.9225   15.4864 H   0  0  0  0  0  0  0  0  0  0  0  0
    1.4586   13.1451   12.6714 C   0  0  1  0  0  0  0  0  0  0  0  0
    1.0751   13.4474   11.8108 H   0  0  0  0  0  0  0  0  0  0  0  0
    2.0880   12.4051   12.4790 H   0  0  0  0  0  0  0  0  0  0  0  0
  2  1  1  0
  4  3  1  0
  6  8  1  0
  7 40  1  0
  7  1  1  1
  8  5  2  0
  8 32  1  0
  9 35  1  0
  9 20  1  1
 10  6  2  0
 39 10  1  6
 11  9  1  0
 11 12  1  1
 11 13  1  0
 14 15  1  6
 14 32  1  0
 14  7  1  0
 16 18  1  1
 16 17  1  0
 19 16  1  0
 20 22  1  6
 20 21  1  0
 20  6  1  0
 23 10  1  0
 23 24  1  6
 25 23  1  0
 26  3  1  0
 26 11  1  0
 26 27  1  6
 28 26  1  0
 29 30  1  6
 29  9  1  0
 29 23  1  0
 31 29  1  0
 32 33  1  1
 32 34  1  0
 35 36  1  6
 35 38  1  0
 37 35  1  0
 39 16  1  0
 39 14  1  0
 40 43  1  1
 40 41  1  0
 42 40  1  0
 44 46  1  1
 44 47  1  0
 45 44  1  0
 47 49  1  1
 47  7  1  0
 48 47  1  0
 50 39  1  0
 50 44  1  0
 50 51  1  6
 52 50  1  0
M  END
$$$$
