out_1002562
     RDKit          3D

 36 38  0  0  0  0  0  0  0  0999 V2000
   -0.0393    1.3892    4.1804 S   0  0  2  0  0  0  0  0  0  0  0  0
    5.0533    1.8957   -0.8354 Cl  0  0  0  0  0  0  0  0  0  0  0  0
   -0.0222    0.0788    3.5795 O   0  0  0  0  0  0  0  0  0  0  0  0
   -1.2901    1.8871    4.7133 O   0  0  0  0  0  0  0  0  0  0  0  0
    1.2428    4.5775    1.1298 N   0  0  0  0  0  0  0  0  0  0  0  0
    1.6268    2.3475    2.1024 C   0  0  0  0  0  0  0  0  0  0  0  0
    3.7421    2.0971    0.2926 C   0  0  0  0  0  0  0  0  0  0  0  0
    3.0400    3.2679    0.3094 C   0  0  0  0  0  0  0  0  0  0  0  0
    3.2778    3.9800   -0.2727 H   0  0  0  0  0  0  0  0  0  0  0  0
    2.4053    1.1591    2.0569 C   0  0  0  0  0  0  0  0  0  0  0  0
    2.2069    0.4445    2.6506 H   0  0  0  0  0  0  0  0  0  0  0  0
    1.9537    3.4073    1.2042 C   0  0  0  0  0  0  0  0  0  0  0  0
    0.5134    2.5826    2.9654 C   0  0  0  0  0  0  0  0  0  0  0  0
    3.4386    1.0332    1.1652 C   0  0  0  0  0  0  0  0  0  0  0  0
    3.9480    0.2320    1.1357 H   0  0  0  0  0  0  0  0  0  0  0  0
   -0.1972    3.7476    2.8687 C   0  0  0  0  0  0  0  0  0  0  0  0
   -0.9472    3.9041    3.4301 H   0  0  0  0  0  0  0  0  0  0  0  0
    1.1901    1.4533    5.4804 C   0  0  2  0  0  0  0  0  0  0  0  0
    2.0905    1.2901    5.0770 H   0  0  0  0  0  0  0  0  0  0  0  0
    0.8891    0.3289    6.4774 C   0  0  1  0  0  0  0  0  0  0  0  0
   -0.0244    0.4436    6.8418 H   0  0  0  0  0  0  0  0  0  0  0  0
    0.9286   -0.5453    6.0145 H   0  0  0  0  0  0  0  0  0  0  0  0
    0.2039    4.7134    1.9199 C   0  0  0  0  0  0  0  0  0  0  0  0
   -0.3093    5.5097    1.8494 H   0  0  0  0  0  0  0  0  0  0  0  0
    1.2009    2.8214    6.1632 C   0  0  1  0  0  0  0  0  0  0  0  0
    1.4329    3.5214    5.5028 H   0  0  0  0  0  0  0  0  0  0  0  0
    0.3002    3.0217    6.5219 H   0  0  0  0  0  0  0  0  0  0  0  0
    2.2216    2.8301    7.3015 C   0  0  1  0  0  0  0  0  0  0  0  0
    3.1310    2.7193    6.9268 H   0  0  0  0  0  0  0  0  0  0  0  0
    2.1866    3.7038    7.7658 H   0  0  0  0  0  0  0  0  0  0  0  0
    1.9497    1.7140    8.3055 C   0  0  2  0  0  0  0  0  0  0  0  0
    1.0859    1.8827    8.7583 H   0  0  0  0  0  0  0  0  0  0  0  0
    2.6610    1.7119    8.9943 H   0  0  0  0  0  0  0  0  0  0  0  0
    1.9044    0.3513    7.6207 C   0  0  1  0  0  0  0  0  0  0  0  0
    1.6639   -0.3414    8.2859 H   0  0  0  0  0  0  0  0  0  0  0  0
    2.8026    0.1338    7.2650 H   0  0  0  0  0  0  0  0  0  0  0  0
  1  4  2  0
  1 18  1  0
  2  7  1  0
  3  1  2  0
  5 12  2  0
  5 23  1  0
  6 13  2  0
  7  8  2  0
  7 14  1  0
  8 12  1  0
  9  8  1  0
 10  6  1  0
 10 11  1  0
 12  6  1  0
  1 13  1  6
 14 10  2  0
 15 14  1  0
 16 13  1  0
 16 17  1  0
 18 25  1  0
 18 20  1  0
 18 19  1  6
 20 21  1  1
 20 34  1  0
 22 20  1  0
 23 16  2  0
 24 23  1  0
 25 27  1  1
 25 28  1  0
 26 25  1  0
 28 30  1  1
 28 31  1  0
 29 28  1  0
 31 32  1  1
 31 33  1  0
 34 35  1  1
 34 31  1  0
 36 34  1  0
M  END
$$$$
