out_1001860
     RDKit          3D

 16 16  0  0  0  0  0  0  0  0999 V2000
    5.6642    2.2478   10.1495 N   0  0  0  0  0  0  0  0  0  0  0  0
    6.8070    3.1232   14.7838 C   0  0  0  0  0  0  0  0  0  0  0  0
    8.0096    3.6163   14.4413 N   0  0  0  0  0  0  0  0  0  0  0  0
    8.3281    3.8499   13.1040 C   0  0  0  0  0  0  0  0  0  0  0  0
    7.4182    3.5988   12.1007 C   0  0  0  0  0  0  0  0  0  0  0  0
    6.1874    3.0848   12.4292 C   0  0  0  0  0  0  0  0  0  0  0  0
    5.9292    2.8495   13.7582 C   0  0  0  0  0  0  0  0  0  0  0  0
    5.1270    2.8065   11.3943 C   0  0  2  0  0  0  0  0  0  0  0  0
    6.3112    2.9213    9.7520 H   0  0  0  0  0  0  0  0  0  0  0  0
    4.8917    2.1008    9.5076 H   0  0  0  0  0  0  0  0  0  0  0  0
    4.4138    2.0974   11.8121 H   0  0  0  0  0  0  0  0  0  0  0  0
    4.6169    3.7403   11.1623 H   0  0  0  0  0  0  0  0  0  0  0  0
    4.9642    2.4169   14.0184 H   0  0  0  0  0  0  0  0  0  0  0  0
    7.6711    3.8049   11.0617 H   0  0  0  0  0  0  0  0  0  0  0  0
    9.3132    4.2375   12.8484 H   0  0  0  0  0  0  0  0  0  0  0  0
    6.5390    2.9480   15.8247 H   0  0  0  0  0  0  0  0  0  0  0  0
  1  8  1  0
  2 16  1  0
  3  2  2  0
  4  3  1  0
  5  6  1  0
  5  4  2  0
  6  7  2  0
  7 13  1  0
  7  2  1  0
  8 11  1  1
  8  6  1  0
  9  1  1  0
 10  1  1  0
 12  8  1  0
 14  5  1  0
 15  4  1  0
M  END
$$$$
