out_1011302
     RDKit          3D

 55 57  0  0  1  0  0  0  0  0999 V2000
    4.4649    6.8628    0.4351 Br  0  0  0  0  0  0  0  0  0  0  0  0
    2.6152    0.8606    3.1532 O   0  0  0  0  0  0  0  0  0  0  0  0
    0.8416    2.1204    3.7156 O   0  0  0  0  0  0  0  0  0  0  0  0
   -0.6271    1.0069    6.8540 O   0  0  0  0  0  0  0  0  0  0  0  0
   -1.1362   -2.0047    7.1344 O   0  0  0  0  0  0  0  0  0  0  0  0
    3.6664    5.3439    1.2495 C   0  0  0  0  0  0  0  0  0  0  0  0
    4.3382    4.1457    1.2010 C   0  0  0  0  0  0  0  0  0  0  0  0
    5.1850    4.0863    0.7749 H   0  0  0  0  0  0  0  0  0  0  0  0
    3.7644    3.0224    1.7815 C   0  0  0  0  0  0  0  0  0  0  0  0
    4.2149    2.1869    1.7486 H   0  0  0  0  0  0  0  0  0  0  0  0
    2.5272    3.1232    2.4121 C   0  0  0  0  0  0  0  0  0  0  0  0
    1.8708    4.3421    2.4455 C   0  0  0  0  0  0  0  0  0  0  0  0
    1.0251    4.4087    2.8733 H   0  0  0  0  0  0  0  0  0  0  0  0
    2.4350    5.4671    1.8609 C   0  0  0  0  0  0  0  0  0  0  0  0
    1.9838    6.3030    1.8808 H   0  0  0  0  0  0  0  0  0  0  0  0
    2.0148    1.9059    3.1052 C   0  0  0  0  0  0  0  0  0  0  0  0
    0.4437    1.1315    4.7218 C   0  0  1  0  0  0  0  0  0  0  0  0
    1.2732    0.7020    5.0787 H   0  0  0  0  0  0  0  0  0  0  0  0
   -0.1913    1.9431    5.8503 C   0  0  1  0  0  0  0  0  0  0  0  0
   -1.3039    2.8663    5.3599 C   0  0  2  0  0  0  0  0  0  0  0  0
   -1.9265    2.3583    4.7993 H   0  0  0  0  0  0  0  0  0  0  0  0
   -0.9145    3.5975    4.8361 H   0  0  0  0  0  0  0  0  0  0  0  0
   -1.7845    3.2362    6.1298 H   0  0  0  0  0  0  0  0  0  0  0  0
    0.8805    2.7585    6.5609 C   0  0  2  0  0  0  0  0  0  0  0  0
    0.4636    3.3143    7.2522 H   0  0  0  0  0  0  0  0  0  0  0  0
    1.3380    3.3330    5.9119 H   0  0  0  0  0  0  0  0  0  0  0  0
    1.5299    2.1533    6.9761 H   0  0  0  0  0  0  0  0  0  0  0  0
   -1.8629    0.3085    6.6451 C   0  0  2  0  0  0  0  0  0  0  0  0
   -2.4156    0.8193    5.9865 H   0  0  0  0  0  0  0  0  0  0  0  0
   -2.5744    0.3101    7.9928 C   0  0  1  0  0  0  0  0  0  0  0  0
   -2.6333    1.2354    8.3408 H   0  0  0  0  0  0  0  0  0  0  0  0
   -3.4939   -0.0409    7.8878 H   0  0  0  0  0  0  0  0  0  0  0  0
   -1.7968   -0.5609    8.9694 C   0  0  1  0  0  0  0  0  0  0  0  0
   -0.8896   -0.1834    9.0933 H   0  0  0  0  0  0  0  0  0  0  0  0
   -2.2524   -0.5542    9.8481 H   0  0  0  0  0  0  0  0  0  0  0  0
   -1.6809   -1.9942    8.4734 C   0  0  1  0  0  0  0  0  0  0  0  0
   -3.0118   -2.7464    8.5606 C   0  0  2  0  0  0  0  0  0  0  0  0
   -3.7126   -2.2239    8.1180 H   0  0  0  0  0  0  0  0  0  0  0  0
   -3.2499   -2.8815    9.5016 H   0  0  0  0  0  0  0  0  0  0  0  0
   -2.9246   -3.6168    8.1179 H   0  0  0  0  0  0  0  0  0  0  0  0
   -0.6449   -2.7542    9.2899 C   0  0  2  0  0  0  0  0  0  0  0  0
   -0.5957   -3.6807    8.9736 H   0  0  0  0  0  0  0  0  0  0  0  0
   -0.9033   -2.7453   10.2351 H   0  0  0  0  0  0  0  0  0  0  0  0
    0.2305   -2.3267    9.1861 H   0  0  0  0  0  0  0  0  0  0  0  0
   -1.6455   -1.1113    6.1149 C   0  0  2  0  0  0  0  0  0  0  0  0
   -2.9538   -1.6321    5.5175 C   0  0  2  0  0  0  0  0  0  0  0  0
   -2.8695   -2.5907    5.3313 H   0  0  0  0  0  0  0  0  0  0  0  0
   -3.1462   -1.1533    4.6845 H   0  0  0  0  0  0  0  0  0  0  0  0
   -3.6846   -1.4864    6.1542 H   0  0  0  0  0  0  0  0  0  0  0  0
   -0.5476   -1.1691    5.0407 C   0  0  2  0  0  0  0  0  0  0  0  0
   -0.7066   -1.9710    4.4825 H   0  0  0  0  0  0  0  0  0  0  0  0
    0.3215   -1.2973    5.4977 H   0  0  0  0  0  0  0  0  0  0  0  0
   -0.4176    0.0455    4.1036 C   0  0  2  0  0  0  0  0  0  0  0  0
   -0.0159   -0.2435    3.2460 H   0  0  0  0  0  0  0  0  0  0  0  0
   -1.3179    0.4096    3.9121 H   0  0  0  0  0  0  0  0  0  0  0  0
  1  6  1  0
  3 17  1  0
 36  5  1  6
  6 14  2  0
  7  6  1  0
  7  9  2  0
  8  7  1  0
  9 11  1  0
 10  9  1  0
 11 12  2  0
 11 16  1  0
 12 13  1  0
 14 15  1  0
 14 12  1  0
 16  2  2  0
 16  3  1  0
 17 18  1  1
 17 19  1  0
 19 24  1  0
 19  4  1  1
 20 19  1  0
 20 23  1  1
 21 20  1  0
 22 20  1  0
 24 27  1  1
 24 25  1  0
 26 24  1  0
 28 29  1  6
 28  4  1  0
 28 30  1  0
 30 31  1  1
 30 33  1  0
 32 30  1  0
 33 34  1  1
 33 35  1  0
 36 37  1  0
 36 33  1  0
 36 41  1  0
 37 39  1  1
 38 37  1  0
 40 37  1  0
 41 43  1  1
 42 41  1  0
 44 41  1  0
 45 46  1  0
 45 28  1  0
 45  5  1  1
 46 49  1  1
 47 46  1  0
 48 46  1  0
 50 52  1  1
 50 45  1  0
 51 50  1  0
 53 17  1  0
 53 50  1  0
 53 54  1  6
 55 53  1  0
M  END
$$$$
