out_247847
     RDKit          3D

 21 21  0  0  1  0  0  0  0  0999 V2000
    4.8026  -15.6181   47.7609 S   0  0  0  0  0  0  0  0  0  0  0  0
    4.7014  -17.0027   48.3219 O   0  0  0  0  0  0  0  0  0  0  0  0
    6.3573  -14.9736   48.3269 C   0  0  2  0  0  0  0  0  0  0  0  0
    6.4237  -15.0869   49.2783 H   0  0  0  0  0  0  0  0  0  0  0  0
    6.4153  -14.0402   48.1106 H   0  0  0  0  0  0  0  0  0  0  0  0
    7.0749  -15.4464   47.8971 H   0  0  0  0  0  0  0  0  0  0  0  0
    3.7430  -14.5952   48.7695 C   0  0  0  0  0  0  0  0  0  0  0  0
    3.4016  -15.0472   50.0352 C   0  0  0  0  0  0  0  0  0  0  0  0
    3.7559  -15.8410   50.3639 H   0  0  0  0  0  0  0  0  0  0  0  0
    2.5290  -14.3031   50.7969 C   0  0  0  0  0  0  0  0  0  0  0  0
    2.2926  -14.6104   51.6421 H   0  0  0  0  0  0  0  0  0  0  0  0
    1.9948  -13.1172   50.3444 C   0  0  0  0  0  0  0  0  0  0  0  0
    2.3778  -12.6781   49.1000 C   0  0  0  0  0  0  0  0  0  0  0  0
    2.0443  -11.8704   48.7822 H   0  0  0  0  0  0  0  0  0  0  0  0
    3.2454  -13.4059   48.3055 C   0  0  0  0  0  0  0  0  0  0  0  0
    3.4893  -13.0916   47.4653 H   0  0  0  0  0  0  0  0  0  0  0  0
    1.0392  -12.3565   51.1258 O   0  0  0  0  0  0  0  0  0  0  0  0
    0.4835  -11.2737   50.3014 C   0  0  1  0  0  0  0  0  0  0  0  0
    1.1520  -10.4282   50.3204 H   0  0  0  0  0  0  0  0  0  0  0  0
    0.3682  -11.6178   49.2863 H   0  0  0  0  0  0  0  0  0  0  0  0
   -0.4773  -10.9809   50.6928 H   0  0  0  0  0  0  0  0  0  0  0  0
  1  2  2  0
  1  3  1  0
  1  7  1  0
  3  4  1  1
  5  3  1  0
  6  3  1  0
  7  8  2  0
  8  9  1  0
  8 10  1  0
 10 11  1  0
 12 10  2  0
 12 17  1  0
 13 12  1  0
 14 13  1  0
 15  7  1  0
 15 13  2  0
 16 15  1  0
 18 19  1  6
 18 21  1  0
 18 17  1  0
 20 18  1  0
M  END
$$$$
