out_578479
     RDKit          3D

 16 15  0  0  0  0  0  0  0  0999 V2000
   -1.4825    8.1937   15.9839 N   0  0  0  0  0  0  0  0  0  0  0  0
    1.6893    1.1063   12.8234 N   0  0  0  0  0  0  0  0  0  0  0  0
    1.3691    2.1489   13.0715 C   0  0  0  0  0  0  0  0  0  0  0  0
    0.2341    3.8997   14.4361 C   0  0  1  0  0  0  0  0  0  0  0  0
    0.7728    3.6286   15.2205 H   0  0  0  0  0  0  0  0  0  0  0  0
   -0.6084    3.3796   14.4723 H   0  0  0  0  0  0  0  0  0  0  0  0
   -0.1156    5.3018   14.6174 C   0  0  1  0  0  0  0  0  0  0  0  0
    0.7295    5.8169   14.6155 H   0  0  0  0  0  0  0  0  0  0  0  0
   -0.6238    5.5825   13.8158 H   0  0  0  0  0  0  0  0  0  0  0  0
    0.9096    3.4984   13.3215 C   0  0  1  0  0  0  0  0  0  0  0  0
    1.7112    4.0764   13.2642 H   0  0  0  0  0  0  0  0  0  0  0  0
    0.3370    3.7393   12.5504 H   0  0  0  0  0  0  0  0  0  0  0  0
   -1.2504    7.0847   15.8999 C   0  0  0  0  0  0  0  0  0  0  0  0
   -0.8695    5.7296   15.7682 C   0  0  1  0  0  0  0  0  0  0  0  0
   -1.6972    5.1857   15.7987 H   0  0  0  0  0  0  0  0  0  0  0  0
   -0.3413    5.4926   16.5717 H   0  0  0  0  0  0  0  0  0  0  0  0
  2  3  3  0
  3 10  1  0
  4  6  1  1
  4  7  1  0
  4  5  1  0
  7 14  1  0
  7  8  1  6
  9  7  1  0
 10  4  1  0
 10 11  1  6
 12 10  1  0
 13  1  3  0
 14 15  1  1
 14 13  1  0
 14 16  1  0
M  END
$$$$
