out_1113022
     RDKit          3D

 33 34  0  0  1  0  0  0  0  0999 V2000
    3.9306    9.2921    0.2331 O   0  0  0  0  0  0  0  0  0  0  0  0
    7.2939   11.4802    1.2883 O   0  0  0  0  0  0  0  0  0  0  0  0
    6.1712    9.7545    0.3131 N   0  0  0  0  0  0  0  0  0  0  0  0
    4.9983    9.4523   -0.3108 C   0  0  0  0  0  0  0  0  0  0  0  0
    6.2717   10.5191    1.5571 C   0  0  1  0  0  0  0  0  0  0  0  0
    5.4241   10.9835    1.7238 H   0  0  0  0  0  0  0  0  0  0  0  0
    6.6652    9.7205    2.7996 C   0  0  1  0  0  0  0  0  0  0  0  0
    7.4810   11.5777   -0.1258 C   0  0  2  0  0  0  0  0  0  0  0  0
    8.3824   11.8670   -0.3400 H   0  0  0  0  0  0  0  0  0  0  0  0
    6.8481   12.1984   -0.5189 H   0  0  0  0  0  0  0  0  0  0  0  0
    7.2323   10.1642   -0.6115 C   0  0  2  0  0  0  0  0  0  0  0  0
    8.0312    9.6055   -0.5091 H   0  0  0  0  0  0  0  0  0  0  0  0
    5.2933    9.3272   -1.7985 C   0  0  1  0  0  0  0  0  0  0  0  0
    5.3524    8.3938   -2.0560 H   0  0  0  0  0  0  0  0  0  0  0  0
    4.5922    9.7490   -2.3194 H   0  0  0  0  0  0  0  0  0  0  0  0
    6.6222   10.0269   -2.0314 C   0  0  2  0  0  0  0  0  0  0  0  0
    6.4530   10.9215   -2.3941 H   0  0  0  0  0  0  0  0  0  0  0  0
    7.9877    8.9898    2.5726 C   0  0  2  0  0  0  0  0  0  0  0  0
    8.1983    8.4623    3.3455 H   0  0  0  0  0  0  0  0  0  0  0  0
    8.6865    9.6316    2.4236 H   0  0  0  0  0  0  0  0  0  0  0  0
    7.9092    8.4166    1.8064 H   0  0  0  0  0  0  0  0  0  0  0  0
    6.8032   10.7010    3.9660 C   0  0  2  0  0  0  0  0  0  0  0  0
    5.9691   11.1552    4.1022 H   0  0  0  0  0  0  0  0  0  0  0  0
    7.4884   11.3432    3.7641 H   0  0  0  0  0  0  0  0  0  0  0  0
    7.0409   10.2195    4.7626 H   0  0  0  0  0  0  0  0  0  0  0  0
    5.5569    8.7153    3.1001 C   0  0  2  0  0  0  0  0  0  0  0  0
    4.7239    9.1806    3.2079 H   0  0  0  0  0  0  0  0  0  0  0  0
    5.7657    8.2406    3.9076 H   0  0  0  0  0  0  0  0  0  0  0  0
    5.4841    8.0928    2.3725 H   0  0  0  0  0  0  0  0  0  0  0  0
    7.5441    9.2708   -2.9844 C   0  0  2  0  0  0  0  0  0  0  0  0
    7.7218    8.3960   -2.6300 H   0  0  0  0  0  0  0  0  0  0  0  0
    8.3696    9.7511   -3.0801 H   0  0  0  0  0  0  0  0  0  0  0  0
    7.1212    9.1893   -3.8427 H   0  0  0  0  0  0  0  0  0  0  0  0
  2  5  1  0
  3  5  1  0
  4  1  2  0
  4  3  1  0
  5  6  1  1
  7  5  1  6
  7 26  1  0
  7 22  1  0
  8  2  1  0
  8  9  1  1
 10  8  1  0
 11 12  1  6
 11  8  1  0
 11  3  1  0
 13  4  1  0
 13 14  1  6
 15 13  1  0
 16 17  1  6
 16 13  1  0
 16 11  1  0
 18  7  1  0
 18 19  1  1
 20 18  1  0
 21 18  1  0
 22 23  1  1
 22 25  1  0
 24 22  1  0
 26 27  1  1
 26 28  1  0
 29 26  1  0
 30 31  1  1
 30 16  1  0
 32 30  1  0
 33 30  1  0
M  END
$$$$
