out_847847
     RDKit          3D

 17 17  0  0  0  0  0  0  0  0999 V2000
    7.2548    5.5375   -0.0484 C   0  0  0  0  0  0  0  0  0  0  0  0
    5.9254    5.5375   -0.4081 C   0  0  0  0  0  0  0  0  0  0  0  0
    5.6662    5.5375   -1.3008 H   0  0  0  0  0  0  0  0  0  0  0  0
    4.9915    5.5375    0.6151 C   0  0  0  0  0  0  0  0  0  0  0  0
    5.3465    5.5375    1.9410 C   0  0  0  0  0  0  0  0  0  0  0  0
    4.6979    5.5375    2.6063 H   0  0  0  0  0  0  0  0  0  0  0  0
    6.6719    5.5375    2.2582 C   0  0  0  0  0  0  0  0  0  0  0  0
    6.9280    5.5375    3.1528 H   0  0  0  0  0  0  0  0  0  0  0  0
    7.6403    5.5375    1.2795 C   0  0  0  0  0  0  0  0  0  0  0  0
    8.5413    5.5375    1.5077 H   0  0  0  0  0  0  0  0  0  0  0  0
    3.1198    4.2949   -0.4478 C   0  0  1  0  0  0  0  0  0  0  0  0
    2.1807    4.3414   -0.6422 H   0  0  0  0  0  0  0  0  0  0  0  0
    3.6132    4.2196   -1.2679 H   0  0  0  0  0  0  0  0  0  0  0  0
    3.2951    3.5285    0.1025 H   0  0  0  0  0  0  0  0  0  0  0  0
    8.4822    5.5375   -1.2814 Cl  0  0  0  0  0  0  0  0  0  0  0  0
    3.5427    5.5375    0.2785 N   0  0  0  0  0  0  0  0  0  0  0  0
    3.0612    5.5375    1.1315 H   0  0  0  0  0  0  0  0  0  0  0  0
  1  9  2  0
  2  1  1  0
  2  4  2  0
  3  2  1  0
  4  5  1  0
  5  7  2  0
  5  6  1  0
  7  8  1  0
  9 10  1  0
  9  7  1  0
 11 14  1  1
 11 16  1  0
 12 11  1  0
 13 11  1  0
 15  1  1  0
 16  4  1  0
 16 17  1  0
M  END
$$$$
