out_1407847
     RDKit          3D

 88 92  0  0  1  0  0  0  0  0999 V2000
    1.7472   17.5337    1.9815 O   0  0  0  0  0  0  0  0  0  0  0  0
    1.9171   18.2038    2.3105 H   0  0  0  0  0  0  0  0  0  0  0  0
    2.8434   15.6568    0.2844 O   0  0  0  0  0  0  0  0  0  0  0  0
    1.0867   13.5459    1.0711 O   0  0  0  0  0  0  0  0  0  0  0  0
    2.0114   13.5020    3.7829 O   0  0  0  0  0  0  0  0  0  0  0  0
    2.4967   16.3489    3.8575 O   0  0  0  0  0  0  0  0  0  0  0  0
    0.0626   14.7203    5.9364 O   0  0  0  0  0  0  0  0  0  0  0  0
    3.4760   19.4352    3.0003 O   0  0  0  0  0  0  0  0  0  0  0  0
    5.1853   18.4789    4.0876 O   0  0  0  0  0  0  0  0  0  0  0  0
    2.7104   16.6242    2.4691 C   0  0  1  0  0  0  0  0  0  0  0  0
    2.5925   15.3270    1.6502 C   0  0  1  0  0  0  0  0  0  0  0  0
    3.2815   14.6737    1.9651 H   0  0  0  0  0  0  0  0  0  0  0  0
    1.2031   14.7334    1.8586 C   0  0  2  0  0  0  0  0  0  0  0  0
    0.5122   15.3956    1.5641 H   0  0  0  0  0  0  0  0  0  0  0  0
    1.0327   14.4534    3.3514 C   0  0  2  0  0  0  0  0  0  0  0  0
    0.1168   14.0887    3.5201 H   0  0  0  0  0  0  0  0  0  0  0  0
    1.2172   15.7442    4.1442 C   0  0  1  0  0  0  0  0  0  0  0  0
    0.4868   16.3852    3.9075 H   0  0  0  0  0  0  0  0  0  0  0  0
    1.2139   15.5068    5.6505 C   0  0  2  0  0  0  0  0  0  0  0  0
    2.0354   15.0287    5.9258 H   0  0  0  0  0  0  0  0  0  0  0  0
    1.1727   16.3693    6.1353 H   0  0  0  0  0  0  0  0  0  0  0  0
   -0.0120   14.3312    7.3098 C   0  0  2  0  0  0  0  0  0  0  0  0
    0.8821   14.0272    7.6065 H   0  0  0  0  0  0  0  0  0  0  0  0
   -0.6350   13.5671    7.3936 H   0  0  0  0  0  0  0  0  0  0  0  0
   -0.4790   15.4452    8.2215 C   0  0  0  0  0  0  0  0  0  0  0  0
    0.2606   15.8004    9.3349 C   0  0  0  0  0  0  0  0  0  0  0  0
    1.0649   15.3341    9.5297 H   0  0  0  0  0  0  0  0  0  0  0  0
   -0.1543   16.8308   10.1764 C   0  0  0  0  0  0  0  0  0  0  0  0
    0.3594   17.0575   10.9420 H   0  0  0  0  0  0  0  0  0  0  0  0
   -1.3150   17.5182    9.8899 C   0  0  0  0  0  0  0  0  0  0  0  0
   -1.5995   18.2276   10.4528 H   0  0  0  0  0  0  0  0  0  0  0  0
   -2.0638   17.1705    8.7788 C   0  0  0  0  0  0  0  0  0  0  0  0
   -2.8636   17.6445    8.5806 H   0  0  0  0  0  0  0  0  0  0  0  0
   -1.6535   16.1373    7.9565 C   0  0  0  0  0  0  0  0  0  0  0  0
   -2.1807   15.8993    7.2033 H   0  0  0  0  0  0  0  0  0  0  0  0
    4.1239   17.2001    2.4000 C   0  0  1  0  0  0  0  0  0  0  0  0
    4.7657   16.5439    2.7703 H   0  0  0  0  0  0  0  0  0  0  0  0
    4.3658   17.3669    1.4543 H   0  0  0  0  0  0  0  0  0  0  0  0
    4.2157   18.4923    3.1803 C   0  0  0  0  0  0  0  0  0  0  0  0
    5.3737   19.7227    4.8362 C   0  0  2  0  0  0  0  0  0  0  0  0
    4.5545   19.9530    5.3402 H   0  0  0  0  0  0  0  0  0  0  0  0
    5.5909   20.4686    4.2235 H   0  0  0  0  0  0  0  0  0  0  0  0
    6.5195   19.4633    5.7797 C   0  0  2  0  0  0  0  0  0  0  0  0
    6.2619   18.7710    6.4252 H   0  0  0  0  0  0  0  0  0  0  0  0
    6.7426   20.2901    6.2587 H   0  0  0  0  0  0  0  0  0  0  0  0
    7.2998   19.1597    5.2711 H   0  0  0  0  0  0  0  0  0  0  0  0
    3.6743   14.7042   -0.3670 C   0  0  2  0  0  0  0  0  0  0  0  0
    3.2111   13.8308   -0.4077 H   0  0  0  0  0  0  0  0  0  0  0  0
    4.5126   14.5864    0.1461 H   0  0  0  0  0  0  0  0  0  0  0  0
    3.9954   15.1772   -1.7691 C   0  0  0  0  0  0  0  0  0  0  0  0
    4.5951   14.2945   -2.6616 C   0  0  0  0  0  0  0  0  0  0  0  0
    4.7702   13.4005   -2.3909 H   0  0  0  0  0  0  0  0  0  0  0  0
    4.9385   14.7009   -3.9335 C   0  0  0  0  0  0  0  0  0  0  0  0
    5.3528   14.0887   -4.5304 H   0  0  0  0  0  0  0  0  0  0  0  0
    4.6803   16.0056   -4.3503 C   0  0  0  0  0  0  0  0  0  0  0  0
    4.9110   16.2860   -5.2281 H   0  0  0  0  0  0  0  0  0  0  0  0
    4.0860   16.8842   -3.4680 C   0  0  0  0  0  0  0  0  0  0  0  0
    3.9045   17.7754   -3.7444 H   0  0  0  0  0  0  0  0  0  0  0  0
    3.7484   16.4826   -2.1825 C   0  0  0  0  0  0  0  0  0  0  0  0
    3.3474   17.1011   -1.5822 H   0  0  0  0  0  0  0  0  0  0  0  0
   -0.2894   13.2266    0.7996 C   0  0  2  0  0  0  0  0  0  0  0  0
   -0.6979   13.9459    0.2548 H   0  0  0  0  0  0  0  0  0  0  0  0
   -0.7908   13.1585    1.6502 H   0  0  0  0  0  0  0  0  0  0  0  0
   -0.3644   11.9232    0.0600 C   0  0  0  0  0  0  0  0  0  0  0  0
   -1.0798   10.8501    0.5742 C   0  0  0  0  0  0  0  0  0  0  0  0
   -1.5217   10.9393    1.4101 H   0  0  0  0  0  0  0  0  0  0  0  0
   -1.1562    9.6503   -0.1167 C   0  0  0  0  0  0  0  0  0  0  0  0
   -1.6520    8.9244    0.2469 H   0  0  0  0  0  0  0  0  0  0  0  0
   -0.5107    9.5071   -1.3387 C   0  0  0  0  0  0  0  0  0  0  0  0
   -0.5541    8.6824   -1.8099 H   0  0  0  0  0  0  0  0  0  0  0  0
    0.1887   10.5665   -1.8586 C   0  0  0  0  0  0  0  0  0  0  0  0
    0.6290   10.4753   -2.6956 H   0  0  0  0  0  0  0  0  0  0  0  0
    0.2606   11.7743   -1.1700 C   0  0  0  0  0  0  0  0  0  0  0  0
    0.7414   12.5021   -1.5449 H   0  0  0  0  0  0  0  0  0  0  0  0
    1.4812   12.2040    3.9856 C   0  0  2  0  0  0  0  0  0  0  0  0
    1.2431   11.7981    3.1147 H   0  0  0  0  0  0  0  0  0  0  0  0
    0.6620   12.2582    4.5383 H   0  0  0  0  0  0  0  0  0  0  0  0
    2.5161   11.3540    4.6833 C   0  0  0  0  0  0  0  0  0  0  0  0
    3.1766   11.8177    5.7797 C   0  0  0  0  0  0  0  0  0  0  0  0
    2.9699   12.6806    6.1194 H   0  0  0  0  0  0  0  0  0  0  0  0
    4.1486   11.0464    6.4071 C   0  0  0  0  0  0  0  0  0  0  0  0
    4.6249   11.3955    7.1524 H   0  0  0  0  0  0  0  0  0  0  0  0
    4.4197    9.7802    5.9462 C   0  0  0  0  0  0  0  0  0  0  0  0
    5.0607    9.2377    6.3913 H   0  0  0  0  0  0  0  0  0  0  0  0
    3.7772    9.3139    4.8702 C   0  0  0  0  0  0  0  0  0  0  0  0
    3.9764    8.4464    4.5395 H   0  0  0  0  0  0  0  0  0  0  0  0
    2.8187   10.0915    4.2314 C   0  0  0  0  0  0  0  0  0  0  0  0
    2.3649    9.7454    3.4714 H   0  0  0  0  0  0  0  0  0  0  0  0
  1  2  1  0
  3 11  1  0
  4 13  1  0
  5 75  1  0
  6 17  1  0
  7 22  1  0
  8 39  2  0
  9 40  1  0
 10  1  1  6
 10  6  1  0
 11 13  1  0
 11 12  1  1
 11 10  1  0
 13 14  1  6
 13 15  1  0
 15 16  1  6
 15  5  1  0
 15 17  1  0
 17 18  1  1
 17 19  1  0
 19 20  1  1
 19  7  1  0
 19 21  1  0
 22 24  1  6
 22 23  1  0
 22 25  1  0
 25 26  2  0
 26 27  1  0
 26 28  1  0
 28 29  1  0
 30 28  2  0
 30 31  1  0
 32 30  1  0
 33 32  1  0
 34 25  1  0
 34 32  2  0
 35 34  1  0
 36 10  1  0
 36 37  1  1
 36 39  1  0
 38 36  1  0
 39  9  1  0
 40 41  1  1
 40 43  1  0
 42 40  1  0
 43 45  1  1
 43 44  1  0
 46 43  1  0
 47 49  1  1
 47  3  1  0
 48 47  1  0
 50 47  1  0
 51 52  1  0
 51 50  2  0
 53 51  1  0
 54 53  1  0
 55 53  2  0
 55 57  1  0
 56 55  1  0
 57 59  2  0
 58 57  1  0
 59 50  1  0
 59 60  1  0
 61  4  1  0
 61 63  1  1
 62 61  1  0
 64 65  2  0
 64 61  1  0
 65 66  1  0
 67 68  1  0
 67 65  1  0
 69 67  2  0
 70 69  1  0
 71 69  1  0
 71 73  2  0
 72 71  1  0
 73 64  1  0
 74 73  1  0
 75 77  1  1
 75 78  1  0
 76 75  1  0
 78 79  2  0
 79 80  1  0
 79 81  1  0
 81 82  1  0
 83 84  1  0
 83 81  2  0
 85 83  1  0
 86 85  1  0
 87 78  1  0
 87 85  2  0
 88 87  1  0
M  END
$$$$
