out_1007847
     RDKit          3D

 64 69  0  0  1  0  0  0  0  0999 V2000
    4.2292    2.9395   13.7819 S   0  0  1  0  0  0  0  0  0  0  0  0
    5.5056    3.4282   13.3788 O   0  0  0  0  0  0  0  0  0  0  0  0
    2.5237    4.0676    9.4815 O   0  0  0  0  0  0  0  0  0  0  0  0
    3.8609    2.9181   15.1668 O   0  0  0  0  0  0  0  0  0  0  0  0
    3.1214    3.9064   13.0188 N   0  0  0  0  0  0  0  0  0  0  0  0
   -0.3464   10.0990   14.4350 C   0  0  0  0  0  0  0  0  0  0  0  0
   -0.5715   11.0009   14.4522 H   0  0  0  0  0  0  0  0  0  0  0  0
    0.2433    9.5098   15.5246 C   0  0  0  0  0  0  0  0  0  0  0  0
    0.4042   10.0136   16.2911 H   0  0  0  0  0  0  0  0  0  0  0  0
    0.5961    8.1885   15.4956 C   0  0  0  0  0  0  0  0  0  0  0  0
    0.9948    7.8074   16.2443 H   0  0  0  0  0  0  0  0  0  0  0  0
    0.3741    7.4104   14.3841 C   0  0  0  0  0  0  0  0  0  0  0  0
    0.8442    6.0165   14.3866 C   0  0  0  0  0  0  0  0  0  0  0  0
    0.9202    5.6216   15.2234 H   0  0  0  0  0  0  0  0  0  0  0  0
    1.1612    5.2790   13.4010 C   0  0  0  0  0  0  0  0  0  0  0  0
    1.0558    5.6451   12.5540 H   0  0  0  0  0  0  0  0  0  0  0  0
    1.6859    3.8808   13.4678 C   0  0  1  0  0  0  0  0  0  0  0  0
    1.6606    3.5862   14.4022 H   0  0  0  0  0  0  0  0  0  0  0  0
    4.0337    1.3309   13.1241 C   0  0  0  0  0  0  0  0  0  0  0  0
    3.2347    0.4141   13.7657 C   0  0  0  0  0  0  0  0  0  0  0  0
    2.8329    0.6297   14.5771 H   0  0  0  0  0  0  0  0  0  0  0  0
    3.0310   -0.8325   13.1990 C   0  0  0  0  0  0  0  0  0  0  0  0
    2.4976   -1.4526   13.6405 H   0  0  0  0  0  0  0  0  0  0  0  0
    3.6001   -1.1676   12.0014 C   0  0  0  0  0  0  0  0  0  0  0  0
    3.3251   -2.5317   11.3925 C   0  0  2  0  0  0  0  0  0  0  0  0
    2.3985   -2.5925   11.1459 H   0  0  0  0  0  0  0  0  0  0  0  0
    3.5320   -3.2158   12.0326 H   0  0  0  0  0  0  0  0  0  0  0  0
    3.8712   -2.6491   10.6120 H   0  0  0  0  0  0  0  0  0  0  0  0
   -0.6016    9.3380   13.3167 C   0  0  0  0  0  0  0  0  0  0  0  0
   -1.0177    9.7212   12.5789 H   0  0  0  0  0  0  0  0  0  0  0  0
   -0.2386    7.9996   13.2883 C   0  0  0  0  0  0  0  0  0  0  0  0
   -0.4074    7.4926   12.5259 H   0  0  0  0  0  0  0  0  0  0  0  0
    0.8703    2.8935   12.6267 C   0  0  2  0  0  0  0  0  0  0  0  0
   -0.0444    2.8903   12.9505 H   0  0  0  0  0  0  0  0  0  0  0  0
    1.2302    2.0023   12.7538 H   0  0  0  0  0  0  0  0  0  0  0  0
    0.8656    3.2169   11.1228 C   0  0  1  0  0  0  0  0  0  0  0  0
    0.2544    3.9715   10.9898 H   0  0  0  0  0  0  0  0  0  0  0  0
    2.2352    3.6951   10.7859 C   0  0  0  0  0  0  0  0  0  0  0  0
    3.7563    4.6855    9.5346 C   0  0  0  0  0  0  0  0  0  0  0  0
    4.2580    4.7026   10.8315 C   0  0  0  0  0  0  0  0  0  0  0  0
    5.4699    5.3494   11.0685 C   0  0  0  0  0  0  0  0  0  0  0  0
    5.8401    5.3708   11.9202 H   0  0  0  0  0  0  0  0  0  0  0  0
    6.1025    5.9524   10.0110 C   0  0  0  0  0  0  0  0  0  0  0  0
    6.9062    6.3964   10.1593 H   0  0  0  0  0  0  0  0  0  0  0  0
    5.5817    5.9215    8.7310 C   0  0  0  0  0  0  0  0  0  0  0  0
    6.0398    6.3442    8.0425 H   0  0  0  0  0  0  0  0  0  0  0  0
    4.3999    5.2779    8.4593 C   0  0  0  0  0  0  0  0  0  0  0  0
    4.0495    5.2405    7.5992 H   0  0  0  0  0  0  0  0  0  0  0  0
    3.2411    4.0355   11.6127 C   0  0  0  0  0  0  0  0  0  0  0  0
    0.3591    2.0791   10.2683 C   0  0  0  0  0  0  0  0  0  0  0  0
    0.8045    0.7866   10.4259 C   0  0  0  0  0  0  0  0  0  0  0  0
    1.4600    0.6052   11.0616 H   0  0  0  0  0  0  0  0  0  0  0  0
    0.2980   -0.2487    9.6610 C   0  0  0  0  0  0  0  0  0  0  0  0
    0.6095   -1.1164    9.7847 H   0  0  0  0  0  0  0  0  0  0  0  0
   -0.6611    0.0085    8.7231 C   0  0  0  0  0  0  0  0  0  0  0  0
   -1.0066   -0.6874    8.2111 H   0  0  0  0  0  0  0  0  0  0  0  0
   -1.1097    1.2669    8.5393 C   0  0  0  0  0  0  0  0  0  0  0  0
   -1.7549    1.4398    7.8927 H   0  0  0  0  0  0  0  0  0  0  0  0
   -0.6095    2.3033    9.3135 C   0  0  0  0  0  0  0  0  0  0  0  0
   -0.9337    3.1657    9.1852 H   0  0  0  0  0  0  0  0  0  0  0  0
    4.6258    1.0033   11.9096 C   0  0  0  0  0  0  0  0  0  0  0  0
    5.1687    1.6181   11.4706 H   0  0  0  0  0  0  0  0  0  0  0  0
    4.3999   -0.2348   11.3669 C   0  0  0  0  0  0  0  0  0  0  0  0
    4.7930   -0.4525   10.5527 H   0  0  0  0  0  0  0  0  0  0  0  0
  1  4  2  0
  2  1  2  0
  3 39  1  0
  3 38  1  0
  5 17  1  0
  1  5  1  6
  6  7  1  0
  6  8  2  0
  8  9  1  0
 10  8  1  0
 10 11  1  0
 12 13  1  0
 12 10  2  0
 13 14  1  0
 15 17  1  0
 15 13  2  0
 16 15  1  0
 17 18  1  1
 19 20  2  0
 19  1  1  0
 20 21  1  0
 22 23  1  0
 22 20  1  0
 24 22  2  0
 25 24  1  0
 25 27  1  1
 26 25  1  0
 28 25  1  0
 29  6  1  0
 30 29  1  0
 31 29  2  0
 31 12  1  0
 32 31  1  0
 33 35  1  6
 33 34  1  0
 33 17  1  0
 36 37  1  1
 36 33  1  0
 38 36  1  0
 38 49  2  0
 39 40  2  0
 40 41  1  0
 40 49  1  0
 41 42  1  0
 43 44  1  0
 43 41  2  0
 45 43  1  0
 46 45  1  0
 47 45  2  0
 47 39  1  0
 48 47  1  0
 49  5  1  0
 50 51  2  0
 50 36  1  0
 51 52  1  0
 53 54  1  0
 53 51  1  0
 55 53  2  0
 56 55  1  0
 57 55  1  0
 57 59  2  0
 58 57  1  0
 59 50  1  0
 60 59  1  0
 61 19  1  0
 62 61  1  0
 63 61  2  0
 63 24  1  0
 64 63  1  0
M  END
$$$$
