out_1957847
     RDKit          3D

 23 24  0  0  0  0  0  0  0  0999 V2000
    3.8714    5.5515    0.2283 F   0  0  0  0  0  0  0  0  0  0  0  0
    2.8623    7.4036    0.3962 F   0  0  0  0  0  0  0  0  0  0  0  0
    1.7652    5.5893    0.4273 F   0  0  0  0  0  0  0  0  0  0  0  0
    2.1337    6.6235    4.5400 C   0  0  0  0  0  0  0  0  0  0  0  0
    3.0942    6.1493    5.4078 C   0  0  0  0  0  0  0  0  0  0  0  0
    3.8512    5.7133    5.0890 H   0  0  0  0  0  0  0  0  0  0  0  0
    2.9030    6.3392    6.7633 C   0  0  0  0  0  0  0  0  0  0  0  0
    3.5381    6.0250    7.3651 H   0  0  0  0  0  0  0  0  0  0  0  0
    1.7818    6.9890    7.2312 C   0  0  0  0  0  0  0  0  0  0  0  0
    1.6699    7.1150    8.1462 H   0  0  0  0  0  0  0  0  0  0  0  0
    0.8282    7.4523    6.3596 C   0  0  0  0  0  0  0  0  0  0  0  0
    0.0698    7.8835    6.6813 H   0  0  0  0  0  0  0  0  0  0  0  0
    1.0008    7.2741    5.0116 C   0  0  0  0  0  0  0  0  0  0  0  0
    0.1312    7.6955    3.8722 C   0  0  2  0  0  0  0  0  0  0  0  0
    0.0874    8.6633    3.8127 H   0  0  0  0  0  0  0  0  0  0  0  0
   -0.7677    7.3469    3.9769 H   0  0  0  0  0  0  0  0  0  0  0  0
    0.7967    7.1104    2.6459 C   0  0  1  0  0  0  0  0  0  0  0  0
    0.2477    6.4102    2.2601 H   0  0  0  0  0  0  0  0  0  0  0  0
    0.9437    7.7966    1.9762 H   0  0  0  0  0  0  0  0  0  0  0  0
    3.0824    6.0959    2.3620 C   0  0  0  0  0  0  0  0  0  0  0  0
    2.8732    6.1499    0.8414 C   0  0  1  0  0  0  0  0  0  0  0  0
    2.0882    6.5596    3.1223 N   0  0  0  0  0  0  0  0  0  0  0  0
    4.1350    5.6514    2.7638 O   0  0  0  0  0  0  0  0  0  0  0  0
 21  1  1  6
  2 21  1  0
  3 21  1  0
  4 13  1  0
  4  5  2  0
  5  7  1  0
  6  5  1  0
  7  9  2  0
  7  8  1  0
  9 10  1  0
 11 12  1  0
 11  9  1  0
 13 11  2  0
 14 16  1  1
 14 13  1  0
 15 14  1  0
 17 22  1  0
 17 14  1  0
 17 18  1  6
 19 17  1  0
 20 23  2  0
 20 22  1  0
 21 20  1  0
 22  4  1  0
M  END
$$$$
