out_1001983
     RDKit          3D

 58 57  0  0  0  0  0  0  0  0999 V2000
   13.5096    3.7509    3.8858 C   0  0  2  0  0  0  0  0  0  0  0  0
   12.6441    3.7495    3.4257 H   0  0  0  0  0  0  0  0  0  0  0  0
   14.2211    3.5502    3.2405 H   0  0  0  0  0  0  0  0  0  0  0  0
   13.6683    4.6334    4.2807 H   0  0  0  0  0  0  0  0  0  0  0  0
   13.5047    2.6921    4.9812 C   0  0  0  0  0  0  0  0  0  0  0  0
   12.6288    2.5608    5.8493 O   0  0  0  0  0  0  0  0  0  0  0  0
   14.7279    1.7811    4.9192 C   0  0  1  0  0  0  0  0  0  0  0  0
   14.6643    0.7797    6.0457 C   0  0  2  0  0  0  0  0  0  0  0  0
   13.9073    0.1739    5.9077 H   0  0  0  0  0  0  0  0  0  0  0  0
   14.5528    1.2488    6.9021 H   0  0  0  0  0  0  0  0  0  0  0  0
   15.4970    0.2591    6.0714 H   0  0  0  0  0  0  0  0  0  0  0  0
   16.9298    2.5378    4.3147 O   0  0  0  0  0  0  0  0  0  0  0  0
   14.6986    1.1655    3.5447 C   0  0  2  0  0  0  0  0  0  0  0  0
   15.5480    0.7148    3.3676 H   0  0  0  0  0  0  0  0  0  0  0  0
   14.5599    1.8726    2.8737 H   0  0  0  0  0  0  0  0  0  0  0  0
   13.9642    0.5208    3.4892 H   0  0  0  0  0  0  0  0  0  0  0  0
   15.9610    2.6347    5.1259 C   0  0  0  0  0  0  0  0  0  0  0  0
   16.1078    3.5375    6.3051 C   0  0  2  0  0  0  0  0  0  0  0  0
   16.0451    2.9868    7.1239 H   0  0  0  0  0  0  0  0  0  0  0  0
   15.3383    4.1627    6.3119 H   0  0  0  0  0  0  0  0  0  0  0  0
   17.4044    4.3829    6.3971 C   0  0  1  0  0  0  0  0  0  0  0  0
   17.4390    4.8463    7.2670 H   0  0  0  0  0  0  0  0  0  0  0  0
   18.1920    3.7832    6.3332 H   0  0  0  0  0  0  0  0  0  0  0  0
   17.4582    5.4089    5.2603 C   0  0  0  0  0  0  0  0  0  0  0  0
   16.4796    5.6231    4.5575 O   0  0  0  0  0  0  0  0  0  0  0  0
   18.6277    6.3528    5.2375 C   0  0  2  0  0  0  0  0  0  0  0  0
   18.6570    7.1571    6.5417 C   0  0  2  0  0  0  0  0  0  0  0  0
   17.8772    7.7490    6.5724 H   0  0  0  0  0  0  0  0  0  0  0  0
   19.4765    7.6930    6.5692 H   0  0  0  0  0  0  0  0  0  0  0  0
   18.6372    6.5438    7.3012 H   0  0  0  0  0  0  0  0  0  0  0  0
   18.4955    7.2720    4.0408 C   0  0  2  0  0  0  0  0  0  0  0  0
   18.4077    6.7383    3.2206 H   0  0  0  0  0  0  0  0  0  0  0  0
   19.2896    7.8426    3.9713 H   0  0  0  0  0  0  0  0  0  0  0  0
   17.6985    7.8373    4.1427 H   0  0  0  0  0  0  0  0  0  0  0  0
   19.8705    5.4992    5.0432 C   0  0  0  0  0  0  0  0  0  0  0  0
   20.7904    5.6633    5.8752 O   0  0  0  0  0  0  0  0  0  0  0  0
   19.9585    4.5553    3.8837 C   0  0  1  0  0  0  0  0  0  0  0  0
   19.1814    3.9421    3.9045 H   0  0  0  0  0  0  0  0  0  0  0  0
   19.9115    5.0749    3.0402 H   0  0  0  0  0  0  0  0  0  0  0  0
   21.2160    3.7641    3.9044 C   0  0  2  0  0  0  0  0  0  0  0  0
   21.9790    4.3772    4.0411 H   0  0  0  0  0  0  0  0  0  0  0  0
   21.3321    3.3252    3.0251 H   0  0  0  0  0  0  0  0  0  0  0  0
   21.2356    2.6921    4.9978 C   0  0  0  0  0  0  0  0  0  0  0  0
   20.3402    2.5846    5.8039 O   0  0  0  0  0  0  0  0  0  0  0  0
   22.5078    1.8320    5.0670 C   0  0  1  0  0  0  0  0  0  0  0  0
   22.4882    0.9028    6.3144 C   0  0  2  0  0  0  0  0  0  0  0  0
   23.3619    0.4714    6.4092 H   0  0  0  0  0  0  0  0  0  0  0  0
   21.7955    0.2216    6.1967 H   0  0  0  0  0  0  0  0  0  0  0  0
   22.2953    1.4363    7.1109 H   0  0  0  0  0  0  0  0  0  0  0  0
   22.5714    0.9521    3.8021 C   0  0  2  0  0  0  0  0  0  0  0  0
   22.6470    1.5206    3.0094 H   0  0  0  0  0  0  0  0  0  0  0  0
   21.7565    0.4099    3.7404 H   0  0  0  0  0  0  0  0  0  0  0  0
   23.3520    0.3590    3.8548 H   0  0  0  0  0  0  0  0  0  0  0  0
   23.7702    2.6806    5.1249 C   0  0  0  0  0  0  0  0  0  0  0  0
   24.7194    2.5411    4.4366 O   0  0  0  0  0  0  0  0  0  0  0  0
   23.8240    3.6344    6.3040 C   0  0  0  0  0  3  0  0  0  0  0  0
   23.8109    3.1078    7.1421 H   0  0  0  0  0  0  0  0  0  0  0  0
   23.0114    4.2014    6.2928 H   0  0  0  0  0  0  0  0  0  0  0  0
  1  4  1  1
  1  5  1  0
  2  1  1  0
  3  1  1  0
  5  6  2  0
  7  5  1  6
  7 17  1  0
  7  8  1  0
  8 11  1  1
  8 10  1  0
  9  8  1  0
 12 17  2  0
 13  7  1  0
 13 14  1  6
 15 13  1  0
 16 13  1  0
 17 18  1  0
 18 20  1  1
 18 21  1  0
 18 19  1  0
 21 22  1  1
 23 21  1  0
 24 21  1  0
 25 24  2  0
 26 24  1  1
 26 27  1  0
 27 29  1  6
 27 28  1  0
 27 30  1  0
 31 34  1  1
 31 26  1  0
 32 31  1  0
 33 31  1  0
 35 26  1  0
 35 36  2  0
 37 40  1  0
 37 38  1  6
 37 35  1  0
 39 37  1  0
 40 41  1  1
 40 43  1  0
 42 40  1  0
 45 43  1  6
 43 44  2  0
 45 54  1  0
 45 46  1  0
 46 47  1  1
 46 49  1  0
 48 46  1  0
 50 53  1  1
 50 45  1  0
 51 50  1  0
 52 50  1  0
 54 56  1  0
 55 54  2  0
 56 57  1  0
 58 56  1  0
M  RAD  1  56   2
M  END
$$$$
