out_1967848
     RDKit          3D

 47 50  0  0  1  0  0  0  0  0999 V2000
    2.9806    3.3725    4.5128 O   0  0  0  0  0  0  0  0  0  0  0  0
    2.9775    2.9930    5.9281 C   0  0  1  0  0  0  0  0  0  0  0  0
    3.1050    2.0217    5.9625 H   0  0  0  0  0  0  0  0  0  0  0  0
    4.1775    3.6289    6.6568 C   0  0  1  0  0  0  0  0  0  0  0  0
    5.3481    3.0697    5.9524 N   0  0  0  0  0  0  0  0  0  0  0  0
    6.0882    3.2087    6.3208 H   0  0  0  0  0  0  0  0  0  0  0  0
    5.3780    3.1629    4.5737 C   0  0  0  0  0  0  0  0  0  0  0  0
    6.5595    3.0588    3.8403 C   0  0  0  0  0  0  0  0  0  0  0  0
    7.3708    2.9243    4.2744 H   0  0  0  0  0  0  0  0  0  0  0  0
    6.5142    3.1569    2.4599 C   0  0  0  0  0  0  0  0  0  0  0  0
    5.3434    3.3575    1.7632 C   0  0  0  0  0  0  0  0  0  0  0  0
    5.3442    3.4411    0.8364 H   0  0  0  0  0  0  0  0  0  0  0  0
    4.1661    3.4298    2.4847 C   0  0  0  0  0  0  0  0  0  0  0  0
    3.3605    3.5600    2.0388 H   0  0  0  0  0  0  0  0  0  0  0  0
    4.1744    3.3111    3.8624 C   0  0  0  0  0  0  0  0  0  0  0  0
    1.6792    3.2615    6.4650 N   0  0  0  0  0  0  0  0  0  0  0  0
    1.0003    4.4936    6.0243 C   0  0  2  0  0  0  0  0  0  0  0  0
    0.7501    4.4165    5.0909 H   0  0  0  0  0  0  0  0  0  0  0  0
    1.5996    5.2514    6.1174 H   0  0  0  0  0  0  0  0  0  0  0  0
   -0.2271    4.7052    6.8673 C   0  0  1  0  0  0  0  0  0  0  0  0
    0.0342    4.8125    7.7960 H   0  0  0  0  0  0  0  0  0  0  0  0
   -0.6747    5.5192    6.5869 H   0  0  0  0  0  0  0  0  0  0  0  0
   -1.1243    3.6104    6.7528 O   0  0  0  0  0  0  0  0  0  0  0  0
   -0.4830    2.4051    7.1306 C   0  0  2  0  0  0  0  0  0  0  0  0
   -1.1007    1.6650    7.0194 H   0  0  0  0  0  0  0  0  0  0  0  0
   -0.2391    2.4522    8.0688 H   0  0  0  0  0  0  0  0  0  0  0  0
    0.7487    2.1518    6.3094 C   0  0  2  0  0  0  0  0  0  0  0  0
    1.1713    1.3276    6.5984 H   0  0  0  0  0  0  0  0  0  0  0  0
    0.5057    2.0571    5.3751 H   0  0  0  0  0  0  0  0  0  0  0  0
    4.1851    5.1578    6.6478 C   0  0  1  0  0  0  0  0  0  0  0  0
    4.1762    5.4722    5.7306 H   0  0  0  0  0  0  0  0  0  0  0  0
    3.3826    5.4844    7.0831 H   0  0  0  0  0  0  0  0  0  0  0  0
    5.4103    5.7222    7.3616 C   0  0  1  0  0  0  0  0  0  0  0  0
    6.2136    5.4527    6.8892 H   0  0  0  0  0  0  0  0  0  0  0  0
    5.3701    6.6907    7.3588 H   0  0  0  0  0  0  0  0  0  0  0  0
    5.4703    5.2234    8.7835 C   0  0  2  0  0  0  0  0  0  0  0  0
    4.7331    5.6069    9.2835 H   0  0  0  0  0  0  0  0  0  0  0  0
    6.2959    5.5294    9.1904 H   0  0  0  0  0  0  0  0  0  0  0  0
    5.4017    3.7084    8.8824 C   0  0  2  0  0  0  0  0  0  0  0  0
    5.3232    3.4525    9.8148 H   0  0  0  0  0  0  0  0  0  0  0  0
    6.2234    3.3274    8.5364 H   0  0  0  0  0  0  0  0  0  0  0  0
    4.2112    3.1366    8.1000 C   0  0  2  0  0  0  0  0  0  0  0  0
    4.2634    2.1686    8.1049 H   0  0  0  0  0  0  0  0  0  0  0  0
    3.3877    3.3934    8.5431 H   0  0  0  0  0  0  0  0  0  0  0  0
    7.7730    3.0568    1.7204 N   0  0  0  0  0  0  0  0  0  0  0  0
    8.7992    2.7839    2.3335 O   0  0  0  0  0  0  0  0  0  0  0  0
    7.7529    3.2392    0.5133 O   0  0  0  0  0  0  0  0  0  0  0  0
  1  2  1  0
  2  3  1  6
  2 16  1  0
  2  4  1  0
  4 42  1  0
  5  6  1  0
  4  5  1  6
  7  5  1  0
  8  9  1  0
  8  7  2  0
 10  8  1  0
 11 10  2  0
 11 13  1  0
 12 11  1  0
 13 15  2  0
 14 13  1  0
 15  1  1  0
 15  7  1  0
 17 19  1  6
 17 16  1  0
 17 20  1  0
 18 17  1  0
 20 21  1  1
 22 20  1  0
 23 20  1  0
 23 24  1  0
 24 26  1  1
 25 24  1  0
 27 16  1  0
 27 28  1  1
 27 24  1  0
 29 27  1  0
 30  4  1  0
 30 32  1  1
 30 33  1  0
 31 30  1  0
 33 36  1  0
 33 34  1  6
 35 33  1  0
 36 39  1  0
 36 38  1  1
 36 37  1  0
 39 40  1  1
 41 39  1  0
 42 43  1  6
 42 44  1  0
 42 39  1  0
 45 46  1  0
 45 10  1  0
 47 45  2  0
M  CHG  2  45   1  46  -1
M  END
$$$$
