out_113023
     RDKit          3D

 36 38  0  0  1  0  0  0  0  0999 V2000
    2.4850    2.5101   -1.9285 Br  0  0  0  0  0  0  0  0  0  0  0  0
    4.0048    1.7805    5.8847 O   0  0  0  0  0  0  0  0  0  0  0  0
    1.6788    4.9750    3.5422 N   0  0  0  0  0  0  0  0  0  0  0  0
    1.3233    5.7565    3.5994 H   0  0  0  0  0  0  0  0  0  0  0  0
    1.8926    4.4276    2.2967 C   0  0  0  0  0  0  0  0  0  0  0  0
    1.3198    5.0077    1.1476 C   0  0  0  0  0  0  0  0  0  0  0  0
    0.8062    5.7779    1.2357 H   0  0  0  0  0  0  0  0  0  0  0  0
    1.5040    4.4619   -0.0979 C   0  0  0  0  0  0  0  0  0  0  0  0
    1.1134    4.8513   -0.8472 H   0  0  0  0  0  0  0  0  0  0  0  0
    2.2704    3.3349   -0.2204 C   0  0  0  0  0  0  0  0  0  0  0  0
    2.8881    2.7478    0.8733 C   0  0  0  0  0  0  0  0  0  0  0  0
    3.4250    1.9969    0.7623 H   0  0  0  0  0  0  0  0  0  0  0  0
    2.6953    3.2920    2.1335 C   0  0  0  0  0  0  0  0  0  0  0  0
    3.3716    2.6884    3.3415 C   0  0  2  0  0  0  0  0  0  0  0  0
    4.2730    2.4216    3.0982 H   0  0  0  0  0  0  0  0  0  0  0  0
    2.8889    1.8913    3.6092 H   0  0  0  0  0  0  0  0  0  0  0  0
    3.4377    3.6429    4.5119 C   0  0  1  0  0  0  0  0  0  0  0  0
    4.0483    4.3687    4.2637 H   0  0  0  0  0  0  0  0  0  0  0  0
    2.0332    4.2776    4.7567 C   0  0  2  0  0  0  0  0  0  0  0  0
    2.1346    4.9498    5.4619 H   0  0  0  0  0  0  0  0  0  0  0  0
    0.9835    3.2829    5.2236 C   0  0  0  0  0  0  0  0  0  0  0  0
    0.0073    2.7950    4.3813 C   0  0  0  0  0  0  0  0  0  0  0  0
   -0.0076    3.0730    3.4949 H   0  0  0  0  0  0  0  0  0  0  0  0
   -0.9368    1.9149    4.8188 C   0  0  0  0  0  0  0  0  0  0  0  0
   -1.5943    1.6128    4.2344 H   0  0  0  0  0  0  0  0  0  0  0  0
   -0.9202    1.4725    6.1165 C   0  0  0  0  0  0  0  0  0  0  0  0
   -1.5518    0.8592    6.4168 H   0  0  0  0  0  0  0  0  0  0  0  0
    0.0495    1.9546    6.9686 C   0  0  0  0  0  0  0  0  0  0  0  0
    0.0806    1.6653    7.8517 H   0  0  0  0  0  0  0  0  0  0  0  0
    0.9671    2.8603    6.5099 C   0  0  0  0  0  0  0  0  0  0  0  0
    1.6005    3.1967    7.1024 H   0  0  0  0  0  0  0  0  0  0  0  0
    3.9986    2.9857    5.7688 C   0  0  0  0  0  0  0  0  0  0  0  0
    4.5857    3.8571    6.8004 C   0  0  2  0  0  0  0  0  0  0  0  0
    4.6035    3.3922    7.6395 H   0  0  0  0  0  0  0  0  0  0  0  0
    4.0554    4.6526    6.8853 H   0  0  0  0  0  0  0  0  0  0  0  0
    5.4802    4.0950    6.5458 H   0  0  0  0  0  0  0  0  0  0  0  0
  1 10  1  0
  3  4  1  0
  3 19  1  0
  5  3  1  0
  6  7  1  0
  6  5  2  0
  8  6  1  0
  9  8  1  0
 10  8  2  0
 10 11  1  0
 11 13  2  0
 12 11  1  0
 13  5  1  0
 13 14  1  0
 14 16  1  1
 14 17  1  0
 15 14  1  0
 17 18  1  6
 17 19  1  0
 17 32  1  0
 19 21  1  0
 19 20  1  1
 21 30  2  0
 22 24  2  0
 22 21  1  0
 23 22  1  0
 24 26  1  0
 25 24  1  0
 26 27  1  0
 26 28  2  0
 28 29  1  0
 30 28  1  0
 30 31  1  0
 32  2  2  0
 32 33  1  0
 33 35  1  1
 33 34  1  0
 36 33  1  0
M  END
$$$$
