out_1004101
     RDKit          3D

 47 51  0  0  1  0  0  0  0  0999 V2000
    0.4113    8.0410   11.0576 O   0  0  0  0  0  0  0  0  0  0  0  0
   -6.9539    7.0432   12.5226 O   0  0  0  0  0  0  0  0  0  0  0  0
   -7.1212    8.8038   11.0311 O   0  0  0  0  0  0  0  0  0  0  0  0
    1.4711    8.6128   11.8279 C   0  0  2  0  0  0  0  0  0  0  0  0
    2.2839    8.6763   11.2664 H   0  0  0  0  0  0  0  0  0  0  0  0
    1.6753    8.0177   12.5924 H   0  0  0  0  0  0  0  0  0  0  0  0
    1.1150   10.0011   12.3541 C   0  0  1  0  0  0  0  0  0  0  0  0
    0.7795    9.9324   13.2829 H   0  0  0  0  0  0  0  0  0  0  0  0
    1.9208   10.5761   12.3568 H   0  0  0  0  0  0  0  0  0  0  0  0
    0.0420   10.6174   11.4601 C   0  0  1  0  0  0  0  0  0  0  0  0
   -0.1396   11.5498   11.7390 H   0  0  0  0  0  0  0  0  0  0  0  0
    0.3467   10.6259   10.5182 H   0  0  0  0  0  0  0  0  0  0  0  0
   -1.2091    9.7819   11.5942 C   0  0  0  0  0  0  0  0  0  0  0  0
   -0.9360    8.2659   11.5264 C   0  0  2  0  0  0  0  0  0  0  0  0
   -1.1427    7.5452   12.8819 C   0  0  1  0  0  0  0  0  0  0  0  0
   -1.3687    6.5975   12.7066 H   0  0  0  0  0  0  0  0  0  0  0  0
   -0.2897    7.5621   13.3841 H   0  0  0  0  0  0  0  0  0  0  0  0
   -2.2419    8.1595   13.7577 C   0  0  1  0  0  0  0  0  0  0  0  0
   -2.4127    7.5613   14.5279 H   0  0  0  0  0  0  0  0  0  0  0  0
   -1.9239    9.0271   14.1133 H   0  0  0  0  0  0  0  0  0  0  0  0
   -3.5326    8.3784   13.0096 C   0  0  0  0  0  0  0  0  0  0  0  0
   -4.6180    7.5088   13.2115 C   0  0  0  0  0  0  0  0  0  0  0  0
   -4.5635    6.7920   13.8325 H   0  0  0  0  0  0  0  0  0  0  0  0
   -5.7599    7.7293   12.4815 C   0  0  0  0  0  0  0  0  0  0  0  0
   -7.7086    7.5511   11.4095 C   0  0  1  0  0  0  0  0  0  0  0  0
   -7.6741    6.9138   10.6528 H   0  0  0  0  0  0  0  0  0  0  0  0
   -8.6555    7.6810   11.6683 H   0  0  0  0  0  0  0  0  0  0  0  0
   -5.8623    8.7877   11.5959 C   0  0  0  0  0  0  0  0  0  0  0  0
   -4.8230    9.6566   11.3785 C   0  0  0  0  0  0  0  0  0  0  0  0
   -4.9080   10.3843   10.7736 H   0  0  0  0  0  0  0  0  0  0  0  0
   -3.6253    9.4305   12.0842 C   0  0  0  0  0  0  0  0  0  0  0  0
   -2.4427   10.2925   11.7948 C   0  0  0  0  0  0  0  0  0  0  0  0
   -2.7274   11.7585   11.7186 C   0  0  0  0  0  0  0  0  0  0  0  0
   -2.2656   12.5453   10.6638 C   0  0  0  0  0  0  0  0  0  0  0  0
   -1.7283   12.1499    9.9875 H   0  0  0  0  0  0  0  0  0  0  0  0
   -2.5776   13.8986   10.5845 C   0  0  0  0  0  0  0  0  0  0  0  0
   -2.2543   14.4176    9.8575 H   0  0  0  0  0  0  0  0  0  0  0  0
   -3.3614   14.4933   11.5669 C   0  0  0  0  0  0  0  0  0  0  0  0
   -3.5770   15.4171   11.5152 H   0  0  0  0  0  0  0  0  0  0  0  0
   -3.8261   13.7220   12.6249 C   0  0  0  0  0  0  0  0  0  0  0  0
   -4.3548   14.1241   13.3040 H   0  0  0  0  0  0  0  0  0  0  0  0
   -3.5245   12.3690   12.6986 C   0  0  0  0  0  0  0  0  0  0  0  0
   -3.8613   11.8509   13.4202 H   0  0  0  0  0  0  0  0  0  0  0  0
   -1.7549    7.6178   10.4100 C   0  0  2  0  0  0  0  0  0  0  0  0
   -1.5696    8.0733    9.5623 H   0  0  0  0  0  0  0  0  0  0  0  0
   -2.7093    7.6926   10.6193 H   0  0  0  0  0  0  0  0  0  0  0  0
   -1.5106    6.6718   10.3326 H   0  0  0  0  0  0  0  0  0  0  0  0
 14  1  1  6
  1  4  1  0
  3 25  1  0
  3 28  1  0
  4  7  1  0
  4  6  1  1
  5  4  1  0
  7  9  1  1
  7  8  1  0
 10 13  1  0
 10 11  1  1
 10  7  1  0
 12 10  1  0
 13 32  2  0
 14 44  1  0
 14 13  1  0
 14 15  1  0
 15 17  1  1
 15 18  1  0
 16 15  1  0
 18 20  1  1
 18 19  1  0
 21 22  2  0
 21 18  1  0
 22 23  1  0
 24  2  1  0
 24 22  1  0
 25 27  1  1
 25  2  1  0
 26 25  1  0
 28 24  2  0
 29 28  1  0
 29 31  2  0
 30 29  1  0
 31 21  1  0
 32 31  1  0
 33 32  1  0
 33 42  1  0
 34 33  2  0
 35 34  1  0
 36 34  1  0
 36 38  2  0
 37 36  1  0
 38 40  1  0
 39 38  1  0
 40 42  2  0
 40 41  1  0
 42 43  1  0
 44 46  1  1
 45 44  1  0
 47 44  1  0
M  END
$$$$
