out_1784896
     RDKit          3D

 30 31  0  0  0  0  0  0  0  0999 V2000
   10.0954    1.1415    3.7029 O   0  0  0  0  0  0  0  0  0  0  0  0
    5.9340   -1.4993    7.6213 O   0  0  0  0  0  0  0  0  0  0  0  0
    5.0235    0.5531    7.7241 N   0  0  0  0  0  0  0  0  0  0  0  0
   10.8430    2.3545    3.8589 C   0  0  2  0  0  0  0  0  0  0  0  0
    9.1042    0.8833    4.6132 C   0  0  0  0  0  0  0  0  0  0  0  0
    8.4866   -0.3611    4.4893 C   0  0  0  0  0  0  0  0  0  0  0  0
    7.4743   -0.7090    5.3624 C   0  0  0  0  0  0  0  0  0  0  0  0
    7.0339    0.1782    6.3544 C   0  0  0  0  0  0  0  0  0  0  0  0
    7.6551    1.4200    6.4572 C   0  0  0  0  0  0  0  0  0  0  0  0
    8.6960    1.7746    5.6002 C   0  0  0  0  0  0  0  0  0  0  0  0
    5.9633   -0.3008    7.2807 C   0  0  0  0  0  0  0  0  0  0  0  0
    3.9349    0.0491    8.5749 C   0  0  2  0  0  0  0  0  0  0  0  0
    3.0572    1.2687    8.8387 C   0  0  2  0  0  0  0  0  0  0  0  0
    3.2922    2.1356    7.5965 C   0  0  2  0  0  0  0  0  0  0  0  0
    4.7750    1.9403    7.2968 C   0  0  2  0  0  0  0  0  0  0  0  0
   10.2187    3.3086    3.8701 H   0  0  0  0  0  0  0  0  0  0  0  0
   11.4770    2.3918    3.0342 H   0  0  0  0  0  0  0  0  0  0  0  0
   11.2682    2.3440    4.6875 H   0  0  0  0  0  0  0  0  0  0  0  0
    8.8405   -1.0275    3.7921 H   0  0  0  0  0  0  0  0  0  0  0  0
    7.0824   -1.6704    5.3797 H   0  0  0  0  0  0  0  0  0  0  0  0
    7.3508    2.0576    7.1755 H   0  0  0  0  0  0  0  0  0  0  0  0
    9.2202    2.6369    5.9011 H   0  0  0  0  0  0  0  0  0  0  0  0
    4.2538   -0.2516    9.4889 H   0  0  0  0  0  0  0  0  0  0  0  0
    3.4062   -0.6573    8.2430 H   0  0  0  0  0  0  0  0  0  0  0  0
    3.4044    1.7084    9.7291 H   0  0  0  0  0  0  0  0  0  0  0  0
    1.9749    0.9633    8.7941 H   0  0  0  0  0  0  0  0  0  0  0  0
    3.0160    3.0616    7.7080 H   0  0  0  0  0  0  0  0  0  0  0  0
    2.6780    1.7523    6.9117 H   0  0  0  0  0  0  0  0  0  0  0  0
    4.9928    2.0065    6.3457 H   0  0  0  0  0  0  0  0  0  0  0  0
    5.3143    2.5858    7.8058 H   0  0  0  0  0  0  0  0  0  0  0  0
  1  4  1  0
  1  5  1  0
  3 12  1  0
  4 16  1  1
  4 18  1  0
  5 10  2  0
  6  5  1  0
  6  7  2  0
  7 20  1  0
  7  8  1  0
  8  9  2  0
  8 11  1  0
  9 21  1  0
 10 22  1  0
 10  9  1  0
 11  2  2  0
 11  3  1  0
 12 13  1  0
 12 23  1  1
 13 25  1  1
 14 27  1  1
 14 13  1  0
 15 14  1  0
 15  3  1  0
 15 30  1  1
 17  4  1  0
 19  6  1  0
 24 12  1  0
 26 13  1  0
 28 14  1  0
 29 15  1  0
M  END
$$$$
