out_117848
     RDKit          3D

 54 56  0  0  1  0  0  0  0  0999 V2000
    5.0387    7.4978    3.5331 O   0  0  0  0  0  0  0  0  0  0  0  0
    7.0476   11.3857    0.7933 O   0  0  0  0  0  0  0  0  0  0  0  0
    7.2020   14.0558    1.0141 O   0  0  0  0  0  0  0  0  0  0  0  0
    7.5994   13.5146    0.5439 H   0  0  0  0  0  0  0  0  0  0  0  0
    3.8935    8.6193    5.5471 O   0  0  0  0  0  0  0  0  0  0  0  0
    8.3785   13.0051    7.8985 O   0  0  0  0  0  0  0  0  0  0  0  0
    6.7580   14.3300    9.4626 O   0  0  0  0  0  0  0  0  0  0  0  0
    6.1498   13.3892    1.7236 C   0  0  2  0  0  0  0  0  0  0  0  0
    5.7235   11.0734    2.7357 C   0  0  0  0  0  0  0  0  0  0  0  0
    5.1053    8.8670    3.5495 C   0  0  0  0  0  0  0  0  0  0  0  0
    6.8063   13.0455    6.0746 C   0  0  0  0  0  0  0  0  0  0  0  0
    7.3860   12.5616    5.5328 H   0  0  0  0  0  0  0  0  0  0  0  0
    5.1669   11.6542    3.8685 C   0  0  0  0  0  0  0  0  0  0  0  0
    4.4969    9.4934    4.6659 C   0  0  0  0  0  0  0  0  0  0  0  0
    6.2055   13.8728    3.1651 C   0  0  2  0  0  0  0  0  0  0  0  0
    7.1081   13.6685    3.4902 H   0  0  0  0  0  0  0  0  0  0  0  0
    4.7120   14.1606    6.3957 C   0  0  0  0  0  0  0  0  0  0  0  0
    3.8925   14.4483    6.0644 H   0  0  0  0  0  0  0  0  0  0  0  0
    6.2922   14.0509    8.1990 C   0  0  0  0  0  0  0  0  0  0  0  0
    6.3671   11.8808    1.6909 C   0  0  0  0  0  0  0  0  0  0  0  0
    5.5782   13.4565    5.5676 C   0  0  0  0  0  0  0  0  0  0  0  0
    5.2306   13.1698    4.1241 C   0  0  2  0  0  0  0  0  0  0  0  0
    4.3367   13.5353    3.9564 H   0  0  0  0  0  0  0  0  0  0  0  0
    4.8313   13.6991    1.0387 C   0  0  2  0  0  0  0  0  0  0  0  0
    4.7215   14.6516    0.9733 H   0  0  0  0  0  0  0  0  0  0  0  0
    4.1094   13.3292    1.5519 H   0  0  0  0  0  0  0  0  0  0  0  0
    4.8281   13.3151    0.1595 H   0  0  0  0  0  0  0  0  0  0  0  0
    5.6984    9.6627    2.5783 C   0  0  0  0  0  0  0  0  0  0  0  0
    6.0792    9.2712    1.8259 H   0  0  0  0  0  0  0  0  0  0  0  0
    7.1679   13.3370    7.3403 C   0  0  0  0  0  0  0  0  0  0  0  0
    5.7866    6.8498    2.4883 C   0  0  2  0  0  0  0  0  0  0  0  0
    5.4495    7.1283    1.6337 H   0  0  0  0  0  0  0  0  0  0  0  0
    5.6973    5.8989    2.5742 H   0  0  0  0  0  0  0  0  0  0  0  0
    6.7129    7.0921    2.5619 H   0  0  0  0  0  0  0  0  0  0  0  0
    6.0422   15.4073    3.2653 C   0  0  2  0  0  0  0  0  0  0  0  0
    6.6431   15.8347    2.6499 H   0  0  0  0  0  0  0  0  0  0  0  0
    6.2441   15.6927    4.1609 H   0  0  0  0  0  0  0  0  0  0  0  0
    5.1386   15.6485    3.0506 H   0  0  0  0  0  0  0  0  0  0  0  0
    5.8176   15.0027   10.3152 C   0  0  2  0  0  0  0  0  0  0  0  0
    5.5132   15.8054    9.8859 H   0  0  0  0  0  0  0  0  0  0  0  0
    6.2420   15.2264   11.1454 H   0  0  0  0  0  0  0  0  0  0  0  0
    5.0692   14.4253   10.4829 H   0  0  0  0  0  0  0  0  0  0  0  0
    4.5197   10.8471    4.8192 C   0  0  0  0  0  0  0  0  0  0  0  0
    4.1055   11.2372    5.5533 H   0  0  0  0  0  0  0  0  0  0  0  0
    5.0549   14.4390    7.7144 C   0  0  0  0  0  0  0  0  0  0  0  0
    4.4543   14.8831    8.2685 H   0  0  0  0  0  0  0  0  0  0  0  0
    9.4280   12.6882    6.9947 C   0  0  2  0  0  0  0  0  0  0  0  0
    9.5273   13.3999    6.3588 H   0  0  0  0  0  0  0  0  0  0  0  0
    9.2187   11.8730    6.5347 H   0  0  0  0  0  0  0  0  0  0  0  0
   10.2479   12.5790    7.4834 H   0  0  0  0  0  0  0  0  0  0  0  0
    3.2280    9.1713    6.6737 C   0  0  2  0  0  0  0  0  0  0  0  0
    2.5576    9.7920    6.3793 H   0  0  0  0  0  0  0  0  0  0  0  0
    3.8650    9.6291    7.2299 H   0  0  0  0  0  0  0  0  0  0  0  0
    2.8126    8.4681    7.1788 H   0  0  0  0  0  0  0  0  0  0  0  0
  1 10  1  0
  2 20  2  0
  4  3  1  0
  5 51  1  0
  7 39  1  0
  8  3  1  6
  8 15  1  0
  9 13  2  0
 10 14  1  0
 11 30  2  0
 12 11  1  0
 13 22  1  0
 13 43  1  0
 14 43  2  0
 14  5  1  0
 15 35  1  0
 15 16  1  1
 15 22  1  0
 17 45  1  0
 18 17  1  0
 19  7  1  0
 20  8  1  0
 20  9  1  0
 21 11  1  0
 21 17  2  0
 22 23  1  6
 22 21  1  0
 24 26  1  1
 24  8  1  0
 25 24  1  0
 27 24  1  0
 28  9  1  0
 28 10  2  0
 29 28  1  0
 30  6  1  0
 30 19  1  0
 31 34  1  6
 31 33  1  0
 31  1  1  0
 32 31  1  0
 35 37  1  1
 36 35  1  0
 38 35  1  0
 39 42  1  1
 39 41  1  0
 40 39  1  0
 43 44  1  0
 45 19  2  0
 45 46  1  0
 47 50  1  1
 47  6  1  0
 48 47  1  0
 49 47  1  0
 51 54  1  1
 51 53  1  0
 52 51  1  0
M  END
$$$$
