out_113025
     RDKit          3D

 47 50  0  0  0  0  0  0  0  0999 V2000
   14.9930    8.6682    1.4514 O   0  0  0  0  0  0  0  0  0  0  0  0
   13.0013    9.6702   -0.4629 O   0  0  0  0  0  0  0  0  0  0  0  0
   13.4726    9.5649    2.9619 N   0  0  0  0  0  0  0  0  0  0  0  0
   11.6121   10.6068    3.8913 N   0  0  0  0  0  0  0  0  0  0  0  0
   11.9514   10.3399    1.4898 N   0  0  0  0  0  0  0  0  0  0  0  0
   10.8318   11.0099    0.8727 C   0  0  0  0  0  0  0  0  0  0  0  0
    9.8797   10.2377    0.2308 C   0  0  0  0  0  0  0  0  0  0  0  0
    9.9409    9.2884    0.2268 H   0  0  0  0  0  0  0  0  0  0  0  0
    8.8336   10.8871   -0.4079 C   0  0  0  0  0  0  0  0  0  0  0  0
    8.1671   10.3760   -0.8511 H   0  0  0  0  0  0  0  0  0  0  0  0
    8.7453   12.2638   -0.4079 C   0  0  0  0  0  0  0  0  0  0  0  0
    8.0221   12.6941   -0.8485 H   0  0  0  0  0  0  0  0  0  0  0  0
    9.7055   13.0126    0.2307 C   0  0  0  0  0  0  0  0  0  0  0  0
    9.6399   13.9601    0.2372 H   0  0  0  0  0  0  0  0  0  0  0  0
   10.7694   12.3858    0.8641 C   0  0  0  0  0  0  0  0  0  0  0  0
   11.4468   12.8995    1.2864 H   0  0  0  0  0  0  0  0  0  0  0  0
   10.3263   11.2025    3.8911 C   0  0  0  0  0  0  0  0  0  0  0  0
    9.2090   10.5171    3.4429 C   0  0  0  0  0  0  0  0  0  0  0  0
    9.3003    9.6393    3.0902 H   0  0  0  0  0  0  0  0  0  0  0  0
    7.9656   11.1089    3.5086 C   0  0  0  0  0  0  0  0  0  0  0  0
    7.2024   10.6350    3.1971 H   0  0  0  0  0  0  0  0  0  0  0  0
    7.8158   12.3834    4.0208 C   0  0  0  0  0  0  0  0  0  0  0  0
    6.9575   12.7899    4.0533 H   0  0  0  0  0  0  0  0  0  0  0  0
    8.9214   13.0553    4.4821 C   0  0  0  0  0  0  0  0  0  0  0  0
    8.8257   13.9315    4.8379 H   0  0  0  0  0  0  0  0  0  0  0  0
   10.1668   12.4698    4.4339 C   0  0  0  0  0  0  0  0  0  0  0  0
   10.9213   12.9356    4.7741 H   0  0  0  0  0  0  0  0  0  0  0  0
   12.2292   10.2199    2.8677 C   0  0  0  0  0  0  0  0  0  0  0  0
   12.9402    9.7483    0.7392 C   0  0  0  0  0  0  0  0  0  0  0  0
   13.9632    9.2262    1.7350 C   0  0  0  0  0  0  0  0  0  0  0  0
   14.0435    9.1773    4.2715 C   0  0  1  0  0  0  0  0  0  0  0  0
   13.5865    9.7169    4.9774 H   0  0  0  0  0  0  0  0  0  0  0  0
   13.7763    7.7026    4.5642 C   0  0  2  0  0  0  0  0  0  0  0  0
   14.2122    7.1425    3.8748 H   0  0  0  0  0  0  0  0  0  0  0  0
   12.8014    7.5288    4.5317 H   0  0  0  0  0  0  0  0  0  0  0  0
   14.3178    7.3301    5.9484 C   0  0  1  0  0  0  0  0  0  0  0  0
   13.8111    7.8209    6.6430 H   0  0  0  0  0  0  0  0  0  0  0  0
   14.1877    6.3611    6.1022 H   0  0  0  0  0  0  0  0  0  0  0  0
   15.7937    7.6646    6.0722 C   0  0  1  0  0  0  0  0  0  0  0  0
   16.0975    7.4764    6.9962 H   0  0  0  0  0  0  0  0  0  0  0  0
   16.3143    7.0895    5.4570 H   0  0  0  0  0  0  0  0  0  0  0  0
   16.0554    9.1237    5.7438 C   0  0  2  0  0  0  0  0  0  0  0  0
   17.0292    9.3006    5.7868 H   0  0  0  0  0  0  0  0  0  0  0  0
   15.6098    9.6975    6.4150 H   0  0  0  0  0  0  0  0  0  0  0  0
   15.5362    9.4764    4.3479 C   0  0  2  0  0  0  0  0  0  0  0  0
   15.6950   10.4354    4.1641 H   0  0  0  0  0  0  0  0  0  0  0  0
   16.0192    8.9451    3.6663 H   0  0  0  0  0  0  0  0  0  0  0  0
  1 30  2  0
  2 29  2  0
  3 31  1  0
  5 28  1  0
  6  5  1  0
  7  6  2  0
  8  7  1  0
  9  7  1  0
 10  9  1  0
 11  9  2  0
 11 13  1  0
 12 11  1  0
 13 14  1  0
 13 15  2  0
 15  6  1  0
 15 16  1  0
 17  4  1  0
 17 26  2  0
 18 20  2  0
 18 17  1  0
 19 18  1  0
 20 22  1  0
 21 20  1  0
 22 23  1  0
 22 24  2  0
 24 25  1  0
 26 24  1  0
 26 27  1  0
 28  3  1  0
 28  4  2  0
 29  5  1  0
 29 30  1  0
 30  3  1  0
 31 45  1  0
 31 33  1  0
 31 32  1  1
 33 36  1  0
 33 34  1  6
 35 33  1  0
 36 39  1  0
 36 38  1  1
 36 37  1  0
 39 40  1  1
 41 39  1  0
 42 43  1  6
 42 39  1  0
 42 44  1  0
 45 42  1  0
 45 46  1  6
 47 45  1  0
M  END
$$$$
