out_1000964
     RDKit          3D

 59 62  0  0  1  0  0  0  0  0999 V2000
    0.7373    3.3078   12.1124 Cl  0  0  0  0  0  0  0  0  0  0  0  0
    0.8290    4.8742   11.3745 C   0  0  0  0  0  0  0  0  0  0  0  0
    0.5554    5.9121   12.1573 N   0  0  0  0  0  0  0  0  0  0  0  0
    0.6087    7.0836   11.5254 C   0  0  0  0  0  0  0  0  0  0  0  0
    0.8966    7.3126   10.2432 N   0  0  0  0  0  0  0  0  0  0  0  0
    1.1798    6.2296    9.5027 C   0  0  0  0  0  0  0  0  0  0  0  0
    1.1577    4.9373   10.0332 C   0  0  0  0  0  0  0  0  0  0  0  0
    1.4793    6.5055    8.1795 N   0  0  0  0  0  0  0  0  0  0  0  0
    1.6350    5.5316    7.1878 C   0  0  0  0  0  0  0  0  0  0  0  0
    1.6590    4.3430    7.3408 O   0  0  0  0  0  0  0  0  0  0  0  0
    1.7403    6.2332    5.9918 N   0  0  0  0  0  0  0  0  0  0  0  0
    1.8985    5.6380    4.7366 C   0  0  0  0  0  0  0  0  0  0  0  0
    1.8759    6.5109    3.7064 N   0  0  0  0  0  0  0  0  0  0  0  0
    2.0677    5.9635    2.4974 C   0  0  0  0  0  0  0  0  0  0  0  0
    2.2843    4.6992    2.1924 N   0  0  0  0  0  0  0  0  0  0  0  0
    2.2769    3.8488    3.2387 C   0  0  0  0  0  0  0  0  0  0  0  0
    2.0868    4.2754    4.5576 C   0  0  0  0  0  0  0  0  0  0  0  0
    2.5081    2.5331    2.9219 N   0  0  0  0  0  0  0  0  0  0  0  0
    2.1502    1.4347    3.7228 C   0  0  0  0  0  0  0  0  0  0  0  0
    1.7742    1.4925    4.8776 O   0  0  0  0  0  0  0  0  0  0  0  0
    2.3151    0.3237    2.9784 N   0  0  0  0  0  0  0  0  0  0  0  0
    2.6371    0.5880    1.5843 C   0  0  1  0  0  0  0  0  0  0  0  0
    2.8882    2.1066    1.5500 C   0  0  2  0  0  0  0  0  0  0  0  0
    4.3359    2.4853    1.2333 C   0  0  2  0  0  0  0  0  0  0  0  0
    4.6066    2.1463   -0.2590 C   0  0  2  0  0  0  0  0  0  0  0  0
    5.3493    1.8090    2.1834 C   0  0  1  0  0  0  0  0  0  0  0  0
    1.5426    7.6796    6.1495 C   0  0  1  0  0  0  0  0  0  0  0  0
    1.5965    7.8880    7.6791 C   0  0  2  0  0  0  0  0  0  0  0  0
    2.8616    8.5535    8.2079 C   0  0  2  0  0  0  0  0  0  0  0  0
    2.7669   10.0856    8.0599 C   0  0  2  0  0  0  0  0  0  0  0  0
    3.8348   10.8260    8.8517 C   0  0  1  0  0  0  0  0  0  0  0  0
    4.1488    7.9772    7.6010 C   0  0  1  0  0  0  0  0  0  0  0  0
    0.3714    7.8537   12.0523 H   0  0  0  0  0  0  0  0  0  0  0  0
    1.3523    4.1311    9.5522 H   0  0  0  0  0  0  0  0  0  0  0  0
    2.0416    6.5831    1.7607 H   0  0  0  0  0  0  0  0  0  0  0  0
    2.0974    3.6919    5.2793 H   0  0  0  0  0  0  0  0  0  0  0  0
    3.4294    0.1181    1.3286 H   0  0  0  0  0  0  0  0  0  0  0  0
    1.8402    0.4013    0.9998 H   0  0  0  0  0  0  0  0  0  0  0  0
    2.2446    2.5340    0.8790 H   0  0  0  0  0  0  0  0  0  0  0  0
    4.4133    3.4935    1.3447 H   0  0  0  0  0  0  0  0  0  0  0  0
    5.5298    2.4493   -0.4697 H   0  0  0  0  0  0  0  0  0  0  0  0
    3.9416    2.6386   -0.8481 H   0  0  0  0  0  0  0  0  0  0  0  0
    4.5516    1.1813   -0.3771 H   0  0  0  0  0  0  0  0  0  0  0  0
    6.2318    2.1093    1.9445 H   0  0  0  0  0  0  0  0  0  0  0  0
    5.1628    2.0389    3.1282 H   0  0  0  0  0  0  0  0  0  0  0  0
    5.3079    0.8251    2.0411 H   0  0  0  0  0  0  0  0  0  0  0  0
    2.2615    8.1855    5.7088 H   0  0  0  0  0  0  0  0  0  0  0  0
    0.6300    7.9330    5.7745 H   0  0  0  0  0  0  0  0  0  0  0  0
    0.7963    8.4191    7.9714 H   0  0  0  0  0  0  0  0  0  0  0  0
    2.8921    8.3659    9.1885 H   0  0  0  0  0  0  0  0  0  0  0  0
    1.8524   10.3480    8.3350 H   0  0  0  0  0  0  0  0  0  0  0  0
    2.8594   10.2570    7.1299 H   0  0  0  0  0  0  0  0  0  0  0  0
    3.7002   11.7792    8.7564 H   0  0  0  0  0  0  0  0  0  0  0  0
    3.7423   10.5852    9.8112 H   0  0  0  0  0  0  0  0  0  0  0  0
    4.7571   10.5708    8.5377 H   0  0  0  0  0  0  0  0  0  0  0  0
    4.9430    8.2947    8.0908 H   0  0  0  0  0  0  0  0  0  0  0  0
    4.1256    6.9925    7.6117 H   0  0  0  0  0  0  0  0  0  0  0  0
    4.2026    8.2902    6.6763 H   0  0  0  0  0  0  0  0  0  0  0  0
    2.1179   -0.4509    3.2449 H   0  0  0  0  0  0  0  0  0  0  0  0
  2  1  1  0
  2  3  2  0
  4 33  1  0
  4  3  1  0
  5  4  2  0
  6  7  2  0
  6  5  1  0
  7  2  1  0
  8  6  1  0
  9 10  2  0
  9  8  1  0
 11 27  1  0
 11  9  1  0
 12 11  1  0
 13 12  2  0
 14 13  1  0
 15 14  2  0
 15 16  1  0
 16 17  2  0
 17 12  1  0
 17 36  1  0
 18 16  1  0
 18 19  1  0
 19 20  2  0
 21 59  1  0
 21 19  1  0
 22 21  1  0
 23 39  1  6
 23 22  1  0
 23 18  1  0
 24 40  1  6
 24 23  1  0
 24 26  1  0
 25 24  1  0
 26 45  1  1
 27 28  1  0
 28 49  1  1
 28  8  1  0
 28 29  1  0
 29 50  1  1
 30 29  1  0
 30 51  1  1
 30 31  1  0
 31 54  1  1
 32 57  1  6
 32 56  1  0
 32 29  1  0
 34  7  1  0
 35 14  1  0
 22 37  1  6
 38 22  1  0
 25 41  1  6
 42 25  1  0
 43 25  1  0
 44 26  1  0
 46 26  1  0
 27 47  1  6
 48 27  1  0
 52 30  1  0
 53 31  1  0
 55 31  1  0
 58 32  1  0
M  END
$$$$
