out_1784745
     RDKit          3D

 41 44  0  0  1  0  0  0  0  0999 V2000
    5.3339   10.3348    5.2155 O   0  0  0  0  0  0  0  0  0  0  0  0
    3.4695   10.3836    4.0210 O   0  0  0  0  0  0  0  0  0  0  0  0
    3.3882   11.1148    4.3828 H   0  0  0  0  0  0  0  0  0  0  0  0
    6.0991    7.2515    2.2142 O   0  0  0  0  0  0  0  0  0  0  0  0
    7.7444    5.1420    4.7487 O   0  0  0  0  0  0  0  0  0  0  0  0
    7.6776    5.6374    5.3985 H   0  0  0  0  0  0  0  0  0  0  0  0
    4.8227    8.4427    3.8124 C   0  0  1  0  0  0  0  0  0  0  0  0
    5.9331    7.6671    4.5288 C   0  0  1  0  0  0  0  0  0  0  0  0
    6.7253    8.2114    4.6635 H   0  0  0  0  0  0  0  0  0  0  0  0
    5.6348    7.3114    5.3798 H   0  0  0  0  0  0  0  0  0  0  0  0
    6.1691    6.5615    3.5000 C   0  0  1  0  0  0  0  0  0  0  0  0
    5.0473    5.5289    3.5838 C   0  0  2  0  0  0  0  0  0  0  0  0
    5.0550    5.1182    4.4620 H   0  0  0  0  0  0  0  0  0  0  0  0
    5.2028    4.8329    2.9269 H   0  0  0  0  0  0  0  0  0  0  0  0
    3.6808    6.1637    3.3346 C   0  0  2  0  0  0  0  0  0  0  0  0
    2.9996    5.6006    3.7341 H   0  0  0  0  0  0  0  0  0  0  0  0
    3.5187    6.1856    2.3784 H   0  0  0  0  0  0  0  0  0  0  0  0
    3.5289    7.5946    3.8925 C   0  0  1  0  0  0  0  0  0  0  0  0
    3.2484    7.5391    4.8196 H   0  0  0  0  0  0  0  0  0  0  0  0
    2.8276    8.0488    3.3998 H   0  0  0  0  0  0  0  0  0  0  0  0
    4.5885    9.8162    4.4225 C   0  0  0  0  0  0  0  0  0  0  0  0
    5.4254    8.5385    2.3546 C   0  0  2  0  0  0  0  0  0  0  0  0
    4.3600    8.6259    1.2680 C   0  0  1  0  0  0  0  0  0  0  0  0
    3.7062    7.8976    1.3138 H   0  0  0  0  0  0  0  0  0  0  0  0
    3.7670    9.9137    0.7943 C   0  0  1  0  0  0  0  0  0  0  0  0
    2.8104    9.9383    0.6324 H   0  0  0  0  0  0  0  0  0  0  0  0
    4.1437   10.7384    1.1379 H   0  0  0  0  0  0  0  0  0  0  0  0
    4.6013    9.1046   -0.1235 C   0  0  1  0  0  0  0  0  0  0  0  0
    5.4861    9.4367   -0.3389 H   0  0  0  0  0  0  0  0  0  0  0  0
    4.1535    8.6364   -0.8456 H   0  0  0  0  0  0  0  0  0  0  0  0
    6.4510    9.6670    2.2328 C   0  0  2  0  0  0  0  0  0  0  0  0
    6.0867   10.5562    2.4273 H   0  0  0  0  0  0  0  0  0  0  0  0
    7.5135    9.6633    1.1647 C   0  0  1  0  0  0  0  0  0  0  0  0
    7.5775    8.8822    0.5940 H   0  0  0  0  0  0  0  0  0  0  0  0
    7.7184   10.5057    0.7291 H   0  0  0  0  0  0  0  0  0  0  0  0
    7.8984    9.5117    2.5938 C   0  0  1  0  0  0  0  0  0  0  0  0
    8.3385   10.2607    3.0248 H   0  0  0  0  0  0  0  0  0  0  0  0
    8.1976    8.6373    2.8897 H   0  0  0  0  0  0  0  0  0  0  0  0
    7.5490    5.9010    3.5471 C   0  0  2  0  0  0  0  0  0  0  0  0
    7.6477    5.3149    2.7802 H   0  0  0  0  0  0  0  0  0  0  0  0
    8.2321    6.5862    3.4883 H   0  0  0  0  0  0  0  0  0  0  0  0
  2  3  1  0
  2 21  1  0
 22  4  1  6
 11  4  1  6
  5  6  1  0
  7 18  1  0
  7 21  1  1
  7  8  1  0
  8  9  1  1
  8 10  1  0
 11 39  1  0
 11 12  1  0
 11  8  1  0
 12 13  1  1
 14 12  1  0
 15 12  1  0
 15 16  1  1
 15 18  1  0
 17 15  1  0
 18 19  1  1
 20 18  1  0
 21  1  2  0
 22  7  1  0
 23 24  1  6
 23 22  1  0
 25 27  1  1
 25 23  1  0
 26 25  1  0
 28 25  1  0
 28 23  1  0
 28 29  1  6
 30 28  1  0
 31 22  1  0
 31 32  1  1
 31 36  1  0
 33 31  1  0
 33 36  1  0
 33 34  1  6
 35 33  1  0
 36 38  1  6
 36 37  1  0
 39  5  1  0
 39 40  1  6
 41 39  1  0
M  END
$$$$
