out_127847
     RDKit          3D

 51 53  0  0  1  0  0  0  0  0999 V2000
    1.3909    4.7082    5.2802 S   0  0  2  0  0  0  0  0  0  0  0  0
    4.9749    7.1327    6.9649 O   0  0  0  0  0  0  0  0  0  0  0  0
    0.5734    5.8581    5.0370 O   0  0  0  0  0  0  0  0  0  0  0  0
    0.8071    3.4036    5.3248 O   0  0  0  0  0  0  0  0  0  0  0  0
    0.2785    3.5719    9.0411 O   0  0  0  0  0  0  0  0  0  0  0  0
    1.0818    5.4763    9.9316 O   0  0  0  0  0  0  0  0  0  0  0  0
    3.3663    2.8007   10.8155 O   0  0  0  0  0  0  0  0  0  0  0  0
    2.7450    1.5472    9.1078 O   0  0  0  0  0  0  0  0  0  0  0  0
    2.0814    4.9477    6.7597 N   0  0  0  0  0  0  0  0  0  0  0  0
    2.7934    6.2221    6.9722 C   0  0  2  0  0  0  0  0  0  0  0  0
    2.5584    6.5660    7.8487 H   0  0  0  0  0  0  0  0  0  0  0  0
    2.4844    6.8632    6.3135 H   0  0  0  0  0  0  0  0  0  0  0  0
    4.3111    6.1230    6.8795 C   0  0  0  0  0  0  0  0  0  0  0  0
    4.9096    4.7840    6.7002 C   0  0  0  0  0  0  0  0  0  0  0  0
    4.1480    3.6342    6.9507 C   0  0  0  0  0  0  0  0  0  0  0  0
    2.7121    3.7833    7.4040 C   0  0  1  0  0  0  0  0  0  0  0  0
    2.2181    2.9775    7.1430 H   0  0  0  0  0  0  0  0  0  0  0  0
    4.7001    2.3809    6.7270 C   0  0  0  0  0  0  0  0  0  0  0  0
    4.2053    1.6151    6.9077 H   0  0  0  0  0  0  0  0  0  0  0  0
    5.9898    2.2740    6.2334 C   0  0  0  0  0  0  0  0  0  0  0  0
    6.3503    1.4336    6.0681 H   0  0  0  0  0  0  0  0  0  0  0  0
    6.7457    3.4016    5.9841 C   0  0  0  0  0  0  0  0  0  0  0  0
    7.6102    3.3170    5.6523 H   0  0  0  0  0  0  0  0  0  0  0  0
    6.2194    4.6515    6.2277 C   0  0  0  0  0  0  0  0  0  0  0  0
    6.7367    5.4095    6.0782 H   0  0  0  0  0  0  0  0  0  0  0  0
    2.6735    4.6838    4.0751 C   0  0  0  0  0  0  0  0  0  0  0  0
    3.0019    5.8503    3.4052 C   0  0  0  0  0  0  0  0  0  0  0  0
    2.5309    6.6373    3.5593 H   0  0  0  0  0  0  0  0  0  0  0  0
    4.0516    5.8180    2.4974 C   0  0  0  0  0  0  0  0  0  0  0  0
    4.2662    6.5894    2.0240 H   0  0  0  0  0  0  0  0  0  0  0  0
    4.7867    4.6604    2.2802 C   0  0  0  0  0  0  0  0  0  0  0  0
    4.4239    3.5040    2.9527 C   0  0  0  0  0  0  0  0  0  0  0  0
    4.9005    2.7204    2.8049 H   0  0  0  0  0  0  0  0  0  0  0  0
    3.3618    3.4973    3.8430 C   0  0  0  0  0  0  0  0  0  0  0  0
    3.1130    2.7126    4.2773 H   0  0  0  0  0  0  0  0  0  0  0  0
    5.9897    4.6616    1.3527 C   0  0  2  0  0  0  0  0  0  0  0  0
    6.5551    5.4084    1.5616 H   0  0  0  0  0  0  0  0  0  0  0  0
    5.6918    4.7317    0.4421 H   0  0  0  0  0  0  0  0  0  0  0  0
    6.4825    3.8457    1.4663 H   0  0  0  0  0  0  0  0  0  0  0  0
    2.6147    3.9447    8.9364 C   0  0  1  0  0  0  0  0  0  0  0  0
    3.2798    4.6048    9.2238 H   0  0  0  0  0  0  0  0  0  0  0  0
    1.2364    4.4267    9.3646 C   0  0  0  0  0  0  0  0  0  0  0  0
   -1.0836    3.9136    9.3698 C   0  0  2  0  0  0  0  0  0  0  0  0
   -1.3174    4.7406    8.9439 H   0  0  0  0  0  0  0  0  0  0  0  0
   -1.1688    4.0082   10.3210 H   0  0  0  0  0  0  0  0  0  0  0  0
   -1.6708    3.2179    9.0636 H   0  0  0  0  0  0  0  0  0  0  0  0
    2.9308    2.6180    9.6037 C   0  0  0  0  0  0  0  0  0  0  0  0
    3.7165    1.6184   11.5908 C   0  0  2  0  0  0  0  0  0  0  0  0
    3.1558    0.8849   11.3269 H   0  0  0  0  0  0  0  0  0  0  0  0
    3.5867    1.7987   12.5255 H   0  0  0  0  0  0  0  0  0  0  0  0
    4.6357    1.3925   11.4324 H   0  0  0  0  0  0  0  0  0  0  0  0
  1  4  2  0
  1  9  1  1
  3  1  2  0
  5 42  1  0
  5 43  1  0
  7 48  1  0
  8 47  2  0
  9 10  1  0
  9 16  1  0
 10 11  1  1
 12 10  1  0
 13  2  2  0
 13 10  1  0
 14 13  1  0
 14 15  2  0
 15 16  1  0
 16 17  1  6
 16 40  1  0
 18 19  1  0
 18 15  1  0
 20 18  2  0
 21 20  1  0
 22 24  2  0
 22 20  1  0
 23 22  1  0
 24 14  1  0
 25 24  1  0
 26  1  1  0
 27 28  1  0
 27 26  2  0
 29 27  1  0
 30 29  1  0
 31 29  2  0
 31 32  1  0
 32 34  2  0
 33 32  1  0
 34 26  1  0
 34 35  1  0
 36 39  1  6
 36 37  1  0
 36 31  1  0
 38 36  1  0
 40 41  1  1
 40 42  1  0
 40 47  1  0
 42  6  2  0
 43 45  1  1
 44 43  1  0
 46 43  1  0
 47  7  1  0
 48 50  1  1
 49 48  1  0
 51 48  1  0
M  END
$$$$
