out_1011161
     RDKit          3D

 55 57  0  0  1  0  0  0  0  0999 V2000
    7.1693    2.3748    0.6633 Br  0  0  0  0  0  0  0  0  0  0  0  0
    5.1689    8.8178   -0.6409 O   0  0  0  0  0  0  0  0  0  0  0  0
    5.1638    8.7771    1.6158 O   0  0  0  0  0  0  0  0  0  0  0  0
    4.8449   10.3080    4.1082 O   0  0  0  0  0  0  0  0  0  0  0  0
    8.1190   10.9030    5.4507 O   0  0  0  0  0  0  0  0  0  0  0  0
    6.5664    4.1729    0.5896 C   0  0  0  0  0  0  0  0  0  0  0  0
    6.1210    4.7779    1.7516 C   0  0  0  0  0  0  0  0  0  0  0  0
    6.0810    4.2894    2.5654 H   0  0  0  0  0  0  0  0  0  0  0  0
    5.7328    6.1084    1.7092 C   0  0  0  0  0  0  0  0  0  0  0  0
    5.4405    6.5424    2.5022 H   0  0  0  0  0  0  0  0  0  0  0  0
    5.7698    6.8115    0.5039 C   0  0  0  0  0  0  0  0  0  0  0  0
    6.2111    6.1749   -0.6503 C   0  0  0  0  0  0  0  0  0  0  0  0
    6.2314    6.6523   -1.4714 H   0  0  0  0  0  0  0  0  0  0  0  0
    6.6223    4.8544   -0.6168 C   0  0  0  0  0  0  0  0  0  0  0  0
    6.9357    4.4237   -1.4034 H   0  0  0  0  0  0  0  0  0  0  0  0
    5.3387    8.2334    0.4041 C   0  0  0  0  0  0  0  0  0  0  0  0
    4.7638   10.1814    1.6584 C   0  0  2  0  0  0  0  0  0  0  0  0
    4.1761   10.3852    0.8755 H   0  0  0  0  0  0  0  0  0  0  0  0
    6.0103   11.0436    1.5944 C   0  0  2  0  0  0  0  0  0  0  0  0
    5.7529   11.9987    1.5528 H   0  0  0  0  0  0  0  0  0  0  0  0
    6.5239   10.8264    0.7763 H   0  0  0  0  0  0  0  0  0  0  0  0
    6.8777   10.7987    2.8255 C   0  0  2  0  0  0  0  0  0  0  0  0
    7.6538   11.4129    2.8036 H   0  0  0  0  0  0  0  0  0  0  0  0
    7.2233    9.8713    2.8002 H   0  0  0  0  0  0  0  0  0  0  0  0
    6.1050   11.0113    4.1290 C   0  0  1  0  0  0  0  0  0  0  0  0
    3.9794   10.3921    2.9548 C   0  0  2  0  0  0  0  0  0  0  0  0
    3.2336   11.7287    2.8693 C   0  0  2  0  0  0  0  0  0  0  0  0
    2.8099   11.9222    3.7317 H   0  0  0  0  0  0  0  0  0  0  0  0
    2.5459   11.6752    2.1728 H   0  0  0  0  0  0  0  0  0  0  0  0
    3.8668   12.4431    2.6488 H   0  0  0  0  0  0  0  0  0  0  0  0
    2.9638    9.2803    3.1868 C   0  0  2  0  0  0  0  0  0  0  0  0
    3.4344    8.4330    3.3316 H   0  0  0  0  0  0  0  0  0  0  0  0
    2.3817    9.2008    2.4025 H   0  0  0  0  0  0  0  0  0  0  0  0
    2.4222    9.4921    3.9756 H   0  0  0  0  0  0  0  0  0  0  0  0
    5.9374   12.4993    4.4378 C   0  0  2  0  0  0  0  0  0  0  0  0
    5.6670   12.9733    3.6237 H   0  0  0  0  0  0  0  0  0  0  0  0
    6.7876   12.8639    4.7610 H   0  0  0  0  0  0  0  0  0  0  0  0
    5.2497   12.6144    5.1264 H   0  0  0  0  0  0  0  0  0  0  0  0
    6.8417   10.2768    5.2673 C   0  0  2  0  0  0  0  0  0  0  0  0
    6.9902    9.3279    4.9889 H   0  0  0  0  0  0  0  0  0  0  0  0
    6.1474   10.2800    6.6361 C   0  0  1  0  0  0  0  0  0  0  0  0
    5.2928   10.7783    6.5955 H   0  0  0  0  0  0  0  0  0  0  0  0
    5.9645    9.3556    6.9396 H   0  0  0  0  0  0  0  0  0  0  0  0
    7.1240   10.9648    7.5622 C   0  0  2  0  0  0  0  0  0  0  0  0
    7.1641   10.4986    8.4344 H   0  0  0  0  0  0  0  0  0  0  0  0
    6.8577   11.9062    7.7163 H   0  0  0  0  0  0  0  0  0  0  0  0
    8.4726   10.8972    6.8533 C   0  0  1  0  0  0  0  0  0  0  0  0
    9.2311    9.6179    7.1686 C   0  0  2  0  0  0  0  0  0  0  0  0
    8.6541    8.8450    6.9941 H   0  0  0  0  0  0  0  0  0  0  0  0
    9.4975    9.6202    8.1116 H   0  0  0  0  0  0  0  0  0  0  0  0
   10.0294    9.5638    6.6033 H   0  0  0  0  0  0  0  0  0  0  0  0
    9.3406   12.1156    7.0956 C   0  0  2  0  0  0  0  0  0  0  0  0
   10.1698   12.0339    6.5792 H   0  0  0  0  0  0  0  0  0  0  0  0
    9.5554   12.1794    8.0497 H   0  0  0  0  0  0  0  0  0  0  0  0
    8.8590   12.9213    6.8146 H   0  0  0  0  0  0  0  0  0  0  0  0
  2 16  2  0
  3 17  1  0
 25  4  1  6
 47  5  1  6
  6  1  1  0
  6  7  2  0
  7  8  1  0
  9  7  1  0
  9 10  1  0
 11  9  2  0
 12 14  2  0
 12 11  1  0
 13 12  1  0
 14  6  1  0
 15 14  1  0
 16 11  1  0
 16  3  1  0
 17 18  1  6
 17 26  1  0
 19 17  1  0
 19 22  1  0
 19 20  1  6
 21 19  1  0
 22 25  1  0
 22 23  1  1
 24 22  1  0
 25 35  1  0
 25 39  1  0
 26 31  1  0
 26  4  1  1
 27 26  1  0
 27 28  1  1
 29 27  1  0
 30 27  1  0
 31 32  1  1
 31 34  1  0
 33 31  1  0
 35 37  1  1
 35 38  1  0
 36 35  1  0
 39 40  1  6
 39  5  1  0
 39 41  1  0
 41 43  1  1
 41 44  1  0
 42 41  1  0
 44 46  1  1
 44 45  1  0
 47 52  1  0
 47 48  1  0
 47 44  1  0
 48 50  1  1
 49 48  1  0
 51 48  1  0
 52 54  1  1
 53 52  1  0
 55 52  1  0
M  END
$$$$
