out_1130221
     RDKit          3D

 39 43  0  0  1  0  0  0  0  0999 V2000
    0.2202    7.9713    9.3805 O   0  0  0  0  0  0  0  0  0  0  0  0
    0.3335    5.7776    9.7070 O   0  0  0  0  0  0  0  0  0  0  0  0
    5.3022    5.3626    8.2615 O   0  0  0  0  0  0  0  0  0  0  0  0
    1.1904    5.1285    6.4069 O   0  0  0  0  0  0  0  0  0  0  0  0
    0.5500    3.2740    7.4883 O   0  0  0  0  0  0  0  0  0  0  0  0
    3.1617    8.4629   12.2686 C   0  0  0  0  0  0  0  0  0  0  0  0
    3.7765    8.8776   11.6749 H   0  0  0  0  0  0  0  0  0  0  0  0
    2.7325    9.1222   13.4164 C   0  0  0  0  0  0  0  0  0  0  0  0
    3.0703    9.9862   13.6211 H   0  0  0  0  0  0  0  0  0  0  0  0
    1.8059    8.5159   14.2685 C   0  0  0  0  0  0  0  0  0  0  0  0
    1.5065    8.9792   15.0419 H   0  0  0  0  0  0  0  0  0  0  0  0
    1.3172    7.2441   13.9982 C   0  0  0  0  0  0  0  0  0  0  0  0
    0.6875    6.8367   14.5814 H   0  0  0  0  0  0  0  0  0  0  0  0
    1.7624    6.5729   12.8600 C   0  0  0  0  0  0  0  0  0  0  0  0
    2.6758    7.1865   12.0048 C   0  0  0  0  0  0  0  0  0  0  0  0
    2.9661    6.3326   10.7999 C   0  0  1  0  0  0  0  0  0  0  0  0
    2.1944    5.0016   11.0687 C   0  0  1  0  0  0  0  0  0  0  0  0
    2.8559    4.2598   11.1783 H   0  0  0  0  0  0  0  0  0  0  0  0
    1.4131    5.1796   12.3978 C   0  0  2  0  0  0  0  0  0  0  0  0
    0.4384    5.0924   12.2477 H   0  0  0  0  0  0  0  0  0  0  0  0
    1.6961    4.5057   13.0656 H   0  0  0  0  0  0  0  0  0  0  0  0
    1.3035    4.6971    9.8676 C   0  0  2  0  0  0  0  0  0  0  0  0
    0.8251    3.8308   10.0116 H   0  0  0  0  0  0  0  0  0  0  0  0
    0.9035    6.9954    9.5080 C   0  0  0  0  0  0  0  0  0  0  0  0
    2.4032    6.9467    9.4810 C   0  0  2  0  0  0  0  0  0  0  0  0
    2.7840    7.8580    9.3244 H   0  0  0  0  0  0  0  0  0  0  0  0
    4.4344    6.0869   10.4235 C   0  0  1  0  0  0  0  0  0  0  0  0
    4.9793    6.8997   10.5735 H   0  0  0  0  0  0  0  0  0  0  0  0
    4.8156    5.3417   10.9523 H   0  0  0  0  0  0  0  0  0  0  0  0
    4.3806    5.7332    8.9457 C   0  0  0  0  0  0  0  0  0  0  0  0
    2.9492    5.9417    8.4454 C   0  0  1  0  0  0  0  0  0  0  0  0
    2.9244    6.3080    7.5152 H   0  0  0  0  0  0  0  0  0  0  0  0
    2.1392    4.6231    8.5774 C   0  0  2  0  0  0  0  0  0  0  0  0
    2.7783    3.8574    8.6502 H   0  0  0  0  0  0  0  0  0  0  0  0
    1.2453    4.4049    7.3599 C   0  0  0  0  0  0  0  0  0  0  0  0
   -0.3172    2.9569    6.3663 C   0  0  2  0  0  0  0  0  0  0  0  0
    0.1950    3.0098    5.5324 H   0  0  0  0  0  0  0  0  0  0  0  0
   -1.0586    3.5970    6.3353 H   0  0  0  0  0  0  0  0  0  0  0  0
   -0.6728    2.0501    6.4742 H   0  0  0  0  0  0  0  0  0  0  0  0
  1 24  2  0
  2 22  1  0
  3 30  2  0
  4 35  2  0
  6  8  1  0
  7  6  1  0
  8  9  1  0
  8 10  2  0
 10 11  1  0
 12 10  1  0
 12 13  1  0
 14 12  2  0
 15  6  2  0
 15 14  1  0
 16 17  1  0
 16 15  1  1
 17 18  1  1
 17 19  1  0
 19 14  1  0
 19 21  1  1
 20 19  1  0
 22 23  1  1
 22 17  1  0
 24  2  1  0
 25 26  1  6
 25 24  1  0
 25 16  1  0
 27 28  1  6
 27 16  1  0
 27 29  1  0
 30 27  1  0
 31 32  1  6
 31 33  1  0
 31 30  1  0
 31 25  1  0
 33 34  1  1
 33 22  1  0
 35  5  1  0
 35 33  1  0
 36 39  1  1
 36  5  1  0
 37 36  1  0
 38 36  1  0
M  END
$$$$
