out_207847
     RDKit          3D

 14 14  0  0  0  0  0  0  0  0999 V2000
    7.2697    0.0168    7.8699 O   0  0  0  0  0  0  0  0  0  0  0  0
    7.6483    1.5229   13.3767 O   0  0  0  0  0  0  0  0  0  0  0  0
    5.9841    0.6756   12.1483 O   0  0  0  0  0  0  0  0  0  0  0  0
    6.1184    1.1539    9.3382 O   0  0  0  0  0  0  0  0  0  0  0  0
    7.1111    0.5004    8.9885 N   0  0  0  0  0  0  0  0  0  0  0  0
    9.4239    0.3565   11.7704 N   0  0  0  0  0  0  0  0  0  0  0  0
   10.1441   -0.0371   10.7176 N   0  0  0  0  0  0  0  0  0  0  0  0
    9.4635   -0.0632    9.5904 C   0  0  0  0  0  0  0  0  0  0  0  0
    9.7840   -0.3010    8.7273 H   0  0  0  0  0  0  0  0  0  0  0  0
    8.2086    0.6032   11.3109 C   0  0  0  0  0  0  0  0  0  0  0  0
    8.1754    0.3326    9.9336 C   0  0  0  0  0  0  0  0  0  0  0  0
    7.1494    0.9354   12.3026 C   0  0  0  0  0  0  0  0  0  0  0  0
    7.0228    1.6061   13.9421 H   0  0  0  0  0  0  0  0  0  0  0  0
   11.0651   -0.1463   11.0053 H   0  0  0  0  0  0  0  0  0  0  0  0
  1  5  1  0
  2 13  1  0
  3 12  2  0
  5  4  2  0
  5 11  1  0
  7 14  1  0
  7  6  1  0
  8 11  2  0
  8  7  1  0
  9  8  1  0
 10  6  2  0
 10 12  1  0
 11 10  1  0
 12  2  1  0
M  CHG  2   1  -1   5   1
M  END
$$$$
