out_1011116
     RDKit          3D

 61 64  0  0  1  0  0  0  0  0999 V2000
    4.6168    3.6995   19.5463 N   0  0  0  0  0  0  0  0  0  0  0  0
    6.0392    3.5688   19.1693 C   0  0  1  0  0  0  0  0  0  0  0  0
    6.3992    2.8618   19.7449 H   0  0  0  0  0  0  0  0  0  0  0  0
    6.4088    1.8355   15.1986 N   0  0  0  0  0  0  0  0  0  0  0  0
    4.6094    2.5357   21.7608 C   0  0  0  0  0  0  0  0  0  0  0  0
    6.1452    3.0256   17.7434 C   0  0  0  0  0  0  0  0  0  0  0  0
    4.4221    3.8235   20.9927 C   0  0  2  0  0  0  0  0  0  0  0  0
    3.5247    4.1556   21.1579 H   0  0  0  0  0  0  0  0  0  0  0  0
    5.0472    4.4824   21.3357 H   0  0  0  0  0  0  0  0  0  0  0  0
    3.9069    4.7582   18.8328 C   0  0  2  0  0  0  0  0  0  0  0  0
    4.2633    4.8243   17.9335 H   0  0  0  0  0  0  0  0  0  0  0  0
    4.0728    5.6034   19.2790 H   0  0  0  0  0  0  0  0  0  0  0  0
    6.9002    4.7942   19.4452 C   0  0  0  0  0  0  0  0  0  0  0  0
    4.6544    2.5823   23.1667 C   0  0  0  0  0  0  0  0  0  0  0  0
    2.4123    4.5320   18.7512 C   0  0  0  0  0  0  0  0  0  0  0  0
    4.7522    1.3141   21.1303 C   0  0  0  0  0  0  0  0  0  0  0  0
    4.7102    1.2750   20.2016 H   0  0  0  0  0  0  0  0  0  0  0  0
    5.1597    2.2059   17.2123 C   0  0  0  0  0  0  0  0  0  0  0  0
    4.3849    2.0331   17.6975 H   0  0  0  0  0  0  0  0  0  0  0  0
    1.8530    3.3096   19.0878 C   0  0  0  0  0  0  0  0  0  0  0  0
    2.4034    2.6109   19.3587 H   0  0  0  0  0  0  0  0  0  0  0  0
    7.2591    3.2330   16.9530 C   0  0  0  0  0  0  0  0  0  0  0  0
    7.9499    3.7814   17.2500 H   0  0  0  0  0  0  0  0  0  0  0  0
    6.8174    5.9152   18.6265 C   0  0  0  0  0  0  0  0  0  0  0  0
    6.2549    5.8972   17.8844 H   0  0  0  0  0  0  0  0  0  0  0  0
    7.7816    4.8198   20.5489 C   0  0  0  0  0  0  0  0  0  0  0  0
    5.3335    1.6499   15.9663 C   0  0  0  0  0  0  0  0  0  0  0  0
    4.6534    1.1067   15.6378 H   0  0  0  0  0  0  0  0  0  0  0  0
    4.8405    1.3975   23.8625 C   0  0  0  0  0  0  0  0  0  0  0  0
    4.8608    1.4178   24.7930 H   0  0  0  0  0  0  0  0  0  0  0  0
    1.5905    5.5861   18.3258 C   0  0  0  0  0  0  0  0  0  0  0  0
    4.5104    3.8761   23.9088 C   0  0  2  0  0  0  0  0  0  0  0  0
    5.2762    4.4298   23.7386 H   0  0  0  0  0  0  0  0  0  0  0  0
    4.4474    3.6995   24.8513 H   0  0  0  0  0  0  0  0  0  0  0  0
    3.7174    4.3277   23.6130 H   0  0  0  0  0  0  0  0  0  0  0  0
    7.3403    2.6184   15.7141 C   0  0  0  0  0  0  0  0  0  0  0  0
    8.1060    2.7679   15.2087 H   0  0  0  0  0  0  0  0  0  0  0  0
    4.9555    0.1518   21.8445 C   0  0  0  0  0  0  0  0  0  0  0  0
    5.0651   -0.6589   21.4031 H   0  0  0  0  0  0  0  0  0  0  0  0
    4.9933    0.2029   23.2200 C   0  0  0  0  0  0  0  0  0  0  0  0
    5.1228   -0.5763   23.7111 H   0  0  0  0  0  0  0  0  0  0  0  0
    8.0053    3.6342   21.4543 C   0  0  2  0  0  0  0  0  0  0  0  0
    7.1753    3.3870   21.8690 H   0  0  0  0  0  0  0  0  0  0  0  0
    8.6452    3.8656   22.1326 H   0  0  0  0  0  0  0  0  0  0  0  0
    8.3389    2.8956   20.9372 H   0  0  0  0  0  0  0  0  0  0  0  0
    8.5037    5.9858   20.7784 C   0  0  0  0  0  0  0  0  0  0  0  0
    9.0820    6.0159   21.5073 H   0  0  0  0  0  0  0  0  0  0  0  0
    7.5558    7.0595   18.8910 C   0  0  0  0  0  0  0  0  0  0  0  0
    7.4828    7.8033   18.3381 H   0  0  0  0  0  0  0  0  0  0  0  0
    0.4789    3.1173   19.0240 C   0  0  0  0  0  0  0  0  0  0  0  0
    0.1102    2.2953   19.2514 H   0  0  0  0  0  0  0  0  0  0  0  0
    8.3986    7.0843   19.9815 C   0  0  0  0  0  0  0  0  0  0  0  0
    8.8942    7.8484   20.1710 H   0  0  0  0  0  0  0  0  0  0  0  0
    2.1626    6.9235   17.9571 C   0  0  2  0  0  0  0  0  0  0  0  0
    2.5479    7.3315   18.7365 H   0  0  0  0  0  0  0  0  0  0  0  0
    1.4654    7.4863   17.6147 H   0  0  0  0  0  0  0  0  0  0  0  0
    2.8395    6.8078   17.2868 H   0  0  0  0  0  0  0  0  0  0  0  0
   -0.3260    4.1488   18.6219 C   0  0  0  0  0  0  0  0  0  0  0  0
   -1.2474    4.0331   18.5925 H   0  0  0  0  0  0  0  0  0  0  0  0
    0.2213    5.3502   18.2614 C   0  0  0  0  0  0  0  0  0  0  0  0
   -0.3398    6.0302   17.9641 H   0  0  0  0  0  0  0  0  0  0  0  0
  1  7  1  0
  2 13  1  0
  2  1  1  0
  2  3  1  1
  4 36  2  0
  4 27  1  0
  5 14  2  0
  6  2  1  0
  7  8  1  6
  7  9  1  0
  7  5  1  0
 10 12  1  1
 10  1  1  0
 11 10  1  0
 13 26  2  0
 14 29  1  0
 14 32  1  0
 15 10  1  0
 15 20  2  0
 16  5  1  0
 16 38  2  0
 17 16  1  0
 18 19  1  0
 18  6  1  0
 20 21  1  0
 22 23  1  0
 22  6  2  0
 24 48  2  0
 24 13  1  0
 25 24  1  0
 26 46  1  0
 26 42  1  0
 27 18  2  0
 28 27  1  0
 29 30  1  0
 31 15  1  0
 32 34  1  1
 33 32  1  0
 35 32  1  0
 36 22  1  0
 37 36  1  0
 38 40  1  0
 39 38  1  0
 40 41  1  0
 40 29  2  0
 42 43  1  1
 42 44  1  0
 45 42  1  0
 46 47  1  0
 48 52  1  0
 49 48  1  0
 50 20  1  0
 50 51  1  0
 52 53  1  0
 52 46  2  0
 54 31  1  0
 54 55  1  1
 56 54  1  0
 57 54  1  0
 58 50  2  0
 59 58  1  0
 60 31  2  0
 60 58  1  0
 61 60  1  0
M  END
$$$$
