out_1711033
     RDKit          3D

 26 27  0  0  0  0  0  0  0  0999 V2000
   -1.1140   -1.9381    2.2838 N   0  0  0  0  0  0  0  0  0  0  0  0
   -0.3080   -2.0088    3.4480 N   0  0  0  0  0  0  0  0  0  0  0  0
   -0.0205   -0.7553    4.0292 C   0  0  0  0  0  0  0  0  0  0  0  0
    1.2139   -0.5247    4.6460 C   0  0  0  0  0  0  0  0  0  0  0  0
    1.5020    0.7197    5.1788 C   0  0  0  0  0  0  0  0  0  0  0  0
    0.5858    1.7593    5.0942 C   0  0  0  0  0  0  0  0  0  0  0  0
   -0.6318    1.5334    4.4755 C   0  0  0  0  0  0  0  0  0  0  0  0
   -0.9370    0.2852    3.9463 C   0  0  0  0  0  0  0  0  0  0  0  0
   -0.1492   -3.2304    4.1160 C   0  0  0  0  0  0  0  0  0  0  0  0
   -0.2008   -4.4351    3.3927 C   0  0  0  0  0  0  0  0  0  0  0  0
   -0.0455   -5.6505    4.0516 C   0  0  0  0  0  0  0  0  0  0  0  0
    0.1543   -5.7075    5.4142 C   0  0  0  0  0  0  0  0  0  0  0  0
    0.1936   -4.5179    6.1339 C   0  0  0  0  0  0  0  0  0  0  0  0
    0.0383   -3.2975    5.5034 C   0  0  0  0  0  0  0  0  0  0  0  0
   -0.5718   -2.2321    1.5747 H   0  0  0  0  0  0  0  0  0  0  0  0
   -1.9198   -2.4551    2.3991 H   0  0  0  0  0  0  0  0  0  0  0  0
    1.8847   -1.2633    4.7065 H   0  0  0  0  0  0  0  0  0  0  0  0
    2.3811    0.8760    5.6282 H   0  0  0  0  0  0  0  0  0  0  0  0
    0.8027    2.6597    5.4707 H   0  0  0  0  0  0  0  0  0  0  0  0
   -1.2987    2.2754    4.4138 H   0  0  0  0  0  0  0  0  0  0  0  0
   -1.8197    0.1328    3.5014 H   0  0  0  0  0  0  0  0  0  0  0  0
   -0.3435   -4.4126    2.4028 H   0  0  0  0  0  0  0  0  0  0  0  0
   -0.0850   -6.4995    3.5255 H   0  0  0  0  0  0  0  0  0  0  0  0
    0.2698   -6.5864    5.8773 H   0  0  0  0  0  0  0  0  0  0  0  0
    0.3360   -4.5440    7.1232 H   0  0  0  0  0  0  0  0  0  0  0  0
    0.0653   -2.4525    6.0376 H   0  0  0  0  0  0  0  0  0  0  0  0
  1 16  1  0
  1  2  1  0
  2  3  1  0
  2  9  1  0
  3  4  2  0
  4 17  1  0
  4  5  1  0
  5 18  1  0
  6  5  2  0
  6 19  1  0
  7  6  1  0
  8  3  1  0
  8  7  2  0
  9 14  2  0
 10 11  2  0
 10  9  1  0
 11 12  1  0
 12 24  1  0
 12 13  2  0
 13 25  1  0
 14 26  1  0
 14 13  1  0
 15  1  1  0
 20  7  1  0
 21  8  1  0
 22 10  1  0
 23 11  1  0
M  END
$$$$
