out_1011033
     RDKit          3D

 69 70  0  0  1  0  0  0  0  0999 V2000
    4.3184    9.8356   17.8879 O   0  0  0  0  0  0  0  0  0  0  0  0
    2.2468   10.5435   17.4592 O   0  0  0  0  0  0  0  0  0  0  0  0
    3.4973   11.6129   13.5377 H   0  0  0  0  0  0  0  0  0  0  0  0
    1.5747    7.3423   14.3478 O   0  0  0  0  0  0  0  0  0  0  0  0
    3.6022    6.3711   14.4746 O   0  0  0  0  0  0  0  0  0  0  0  0
    5.8921    6.8219   15.4860 O   0  0  0  0  0  0  0  0  0  0  0  0
    5.0922    6.5833   15.0641 H   0  0  0  0  0  0  0  0  0  0  0  0
    5.1755   11.0964   12.1599 O   0  0  0  0  0  0  0  0  0  0  0  0
    4.0925    9.0958   12.0984 O   0  0  0  0  0  0  0  0  0  0  0  0
    3.2095    8.4755   15.2955 N   0  0  0  0  0  0  0  0  0  0  0  0
    3.3456   10.8464   13.3310 N   0  0  0  0  0  0  0  0  0  0  0  0
    4.5941    8.8868   15.6509 C   0  0  1  0  0  0  0  0  0  0  0  0
    5.0637    9.1581   14.8108 H   0  0  0  0  0  0  0  0  0  0  0  0
    4.3495   10.1494   16.4912 C   0  0  1  0  0  0  0  0  0  0  0  0
    5.0218   10.8618   16.2890 H   0  0  0  0  0  0  0  0  0  0  0  0
    2.9135   10.6264   16.2016 C   0  0  1  0  0  0  0  0  0  0  0  0
    2.8995   11.5571   15.8361 H   0  0  0  0  0  0  0  0  0  0  0  0
    2.3009    9.6357   15.2342 C   0  0  1  0  0  0  0  0  0  0  0  0
    1.4008    9.3629   15.5739 H   0  0  0  0  0  0  0  0  0  0  0  0
    3.2533   10.5835   18.4560 C   0  0  1  0  0  0  0  0  0  0  0  0
    5.4642    7.8479   16.3702 C   0  0  2  0  0  0  0  0  0  0  0  0
    4.9532    7.4474   17.1309 H   0  0  0  0  0  0  0  0  0  0  0  0
    6.7544    8.4717   16.8883 C   0  0  1  0  0  0  0  0  0  0  0  0
    7.2751    8.8292   16.1262 H   0  0  0  0  0  0  0  0  0  0  0  0
    6.5352    9.2265   17.4903 H   0  0  0  0  0  0  0  0  0  0  0  0
    7.5817    7.4703   17.6286 C   0  0  0  0  0  0  0  0  0  0  0  0
    7.1480    6.9741   18.3130 H   0  0  0  0  0  0  0  0  0  0  0  0
    8.8490    7.2138   17.4207 C   0  0  0  0  0  0  0  0  0  0  0  0
    9.3244    7.6856   16.7467 H   0  0  0  0  0  0  0  0  0  0  0  0
    9.2929    6.5572   17.9438 H   0  0  0  0  0  0  0  0  0  0  0  0
    2.8642    7.3258   14.6795 C   0  0  0  0  0  0  0  0  0  0  0  0
    0.9791    6.2511   13.5581 C   0  0  2  0  0  0  0  0  0  0  0  0
    0.9512    4.9825   14.3851 C   0  0  2  0  0  0  0  0  0  0  0  0
    0.4537    4.2892   13.9030 H   0  0  0  0  0  0  0  0  0  0  0  0
    0.5131    5.1616   15.2433 H   0  0  0  0  0  0  0  0  0  0  0  0
    1.8681    4.6759   14.5440 H   0  0  0  0  0  0  0  0  0  0  0  0
    1.7237    6.0884   12.2514 C   0  0  2  0  0  0  0  0  0  0  0  0
    1.1840    5.5541   11.6321 H   0  0  0  0  0  0  0  0  0  0  0  0
    2.5768    5.6351   12.4160 H   0  0  0  0  0  0  0  0  0  0  0  0
    1.8928    6.9707   11.8599 H   0  0  0  0  0  0  0  0  0  0  0  0
   -0.4247    6.7709   13.3246 C   0  0  2  0  0  0  0  0  0  0  0  0
   -0.3811    7.6223   12.8411 H   0  0  0  0  0  0  0  0  0  0  0  0
   -0.8701    6.9070   14.1866 H   0  0  0  0  0  0  0  0  0  0  0  0
   -0.9300    6.1197   12.7946 H   0  0  0  0  0  0  0  0  0  0  0  0
    2.7479    9.8575   19.6715 C   0  0  2  0  0  0  0  0  0  0  0  0
    1.9656   10.3260   20.0300 H   0  0  0  0  0  0  0  0  0  0  0  0
    3.4527    9.8302   20.3522 H   0  0  0  0  0  0  0  0  0  0  0  0
    2.4967    8.9430   19.4248 H   0  0  0  0  0  0  0  0  0  0  0  0
    3.6904   12.0076   18.7452 C   0  0  2  0  0  0  0  0  0  0  0  0
    4.0044   12.4277   17.9175 H   0  0  0  0  0  0  0  0  0  0  0  0
    4.4166   11.9993   19.4033 H   0  0  0  0  0  0  0  0  0  0  0  0
    2.9321   12.5157   19.1021 H   0  0  0  0  0  0  0  0  0  0  0  0
    2.1494   10.2043   13.8209 C   0  0  2  0  0  0  0  0  0  0  0  0
    1.9044    9.4695   13.2044 H   0  0  0  0  0  0  0  0  0  0  0  0
    1.4084   10.8607   13.8172 H   0  0  0  0  0  0  0  0  0  0  0  0
    4.1967   10.2310   12.4894 C   0  0  0  0  0  0  0  0  0  0  0  0
    6.3221   10.6684   11.3618 C   0  0  1  0  0  0  0  0  0  0  0  0
    7.0667    9.5783   12.1000 C   0  0  2  0  0  0  0  0  0  0  0  0
    6.4999    8.7820   12.1655 H   0  0  0  0  0  0  0  0  0  0  0  0
    7.2964    9.8912   13.0000 H   0  0  0  0  0  0  0  0  0  0  0  0
    7.8877    9.3559   11.6125 H   0  0  0  0  0  0  0  0  0  0  0  0
    5.8753   10.2445    9.9862 C   0  0  2  0  0  0  0  0  0  0  0  0
    5.2986   10.9369    9.6017 H   0  0  0  0  0  0  0  0  0  0  0  0
    5.3768    9.4026   10.0499 H   0  0  0  0  0  0  0  0  0  0  0  0
    6.6596   10.1164    9.4127 H   0  0  0  0  0  0  0  0  0  0  0  0
    7.1455   11.9400   11.2861 C   0  0  2  0  0  0  0  0  0  0  0  0
    7.9554   11.7736   10.7593 H   0  0  0  0  0  0  0  0  0  0  0  0
    7.3968   12.2208   12.1907 H   0  0  0  0  0  0  0  0  0  0  0  0
    6.6176   12.6462   10.8592 H   0  0  0  0  0  0  0  0  0  0  0  0
 20  1  1  6
  2 20  1  0
  4 31  1  0
  5 31  2  0
  6 21  1  0
  7  6  1  0
  8 56  1  0
  9 56  2  0
 10 12  1  0
 11  3  1  0
 11 53  1  0
 12 13  1  6
 12 21  1  0
 12 14  1  0
 14 15  1  1
 14  1  1  0
 16 17  1  6
 16 14  1  0
 16  2  1  0
 18 10  1  0
 18 19  1  1
 18 16  1  0
 20 49  1  0
 20 45  1  0
 21 23  1  0
 21 22  1  1
 23 25  1  1
 23 26  1  0
 24 23  1  0
 26 27  1  0
 28 26  2  0
 28 30  1  0
 29 28  1  0
 31 10  1  0
 32  4  1  1
 32 33  1  0
 33 36  1  1
 33 35  1  0
 34 33  1  0
 37 39  1  1
 37 32  1  0
 38 37  1  0
 40 37  1  0
 41 32  1  0
 41 43  1  1
 42 41  1  0
 44 41  1  0
 45 46  1  1
 45 47  1  0
 48 45  1  0
 49 52  1  1
 49 51  1  0
 50 49  1  0
 53 18  1  0
 53 54  1  6
 55 53  1  0
 56 11  1  0
 57 58  1  0
 57  8  1  1
 58 59  1  1
 58 60  1  0
 61 58  1  0
 62 64  1  1
 62 57  1  0
 63 62  1  0
 65 62  1  0
 66 57  1  0
 66 68  1  1
 67 66  1  0
 69 66  1  0
M  END
$$$$
