out_784799
     RDKit          3D

 13 13  0  0  0  0  0  0  0  0999 V2000
    2.1617    2.6105    2.6640 N   0  0  0  0  0  0  0  0  0  0  0  0
    0.7979    2.3695    0.7534 N   0  0  0  0  0  0  0  0  0  0  0  0
    0.6416    2.5359   -0.0730 H   0  0  0  0  0  0  0  0  0  0  0  0
    0.3035    1.7969    1.1749 H   0  0  0  0  0  0  0  0  0  0  0  0
    2.5438    3.8517    0.6710 C   0  0  0  0  0  0  0  0  0  0  0  0
    2.2814    4.0967   -0.1836 H   0  0  0  0  0  0  0  0  0  0  0  0
    3.6736    4.4187    1.1890 C   0  0  0  0  0  0  0  0  0  0  0  0
    4.2155    4.9641    0.6592 H   0  0  0  0  0  0  0  0  0  0  0  0
    4.0096    4.1807    2.4721 C   0  0  0  0  0  0  0  0  0  0  0  0
    4.7219    4.6268    2.8677 H   0  0  0  0  0  0  0  0  0  0  0  0
    3.2584    3.2512    3.2256 C   0  0  0  0  0  0  0  0  0  0  0  0
    3.5058    3.0570    4.1073 H   0  0  0  0  0  0  0  0  0  0  0  0
    1.7506    2.9386    1.3656 C   0  0  0  0  0  0  0  0  0  0  0  0
  1 11  2  0
  2  4  1  0
  2 13  1  0
  3  2  1  0
  5  7  1  0
  5 13  2  0
  6  5  1  0
  7  9  2  0
  8  7  1  0
  9 10  1  0
  9 11  1  0
 11 12  1  0
 13  1  1  0
M  END
$$$$
