out_1130244
     RDKit          3D

 52 54  0  0  1  0  0  0  0  0999 V2000
    4.1275   10.6691   16.3000 O   0  0  0  0  0  0  0  0  0  0  0  0
    4.6846   10.9573   16.8601 H   0  0  0  0  0  0  0  0  0  0  0  0
    0.4466    7.7458   15.0000 O   0  0  0  0  0  0  0  0  0  0  0  0
    0.2925   10.9655    8.9975 O   0  0  0  0  0  0  0  0  0  0  0  0
   -0.5307   11.0774    9.1223 H   0  0  0  0  0  0  0  0  0  0  0  0
    1.5260    7.9631   14.4623 C   0  0  0  0  0  0  0  0  0  0  0  0
    1.7052    7.7986   13.0006 C   0  0  0  0  0  0  0  0  0  0  0  0
    4.8123    9.8675   15.3036 C   0  0  1  0  0  0  0  0  0  0  0  0
    0.6099    9.5763    9.1219 C   0  0  2  0  0  0  0  0  0  0  0  0
    1.5696    9.4392    8.9227 H   0  0  0  0  0  0  0  0  0  0  0  0
    0.0836    9.0586    8.4612 H   0  0  0  0  0  0  0  0  0  0  0  0
    3.6904    9.2317   14.4659 C   0  0  1  0  0  0  0  0  0  0  0  0
    3.1422   10.0057   14.1466 H   0  0  0  0  0  0  0  0  0  0  0  0
    2.8855    8.0585   12.4070 C   0  0  0  0  0  0  0  0  0  0  0  0
    4.1341    8.5017   13.1717 C   0  0  2  0  0  0  0  0  0  0  0  0
    0.3064    9.0654   10.5202 C   0  0  2  0  0  0  0  0  0  0  0  0
   -0.6398    9.2670   10.7276 H   0  0  0  0  0  0  0  0  0  0  0  0
    0.8665    9.5684   11.1641 H   0  0  0  0  0  0  0  0  0  0  0  0
    2.7239    8.3786   15.2746 C   0  0  2  0  0  0  0  0  0  0  0  0
    3.1952    7.5700   15.5987 H   0  0  0  0  0  0  0  0  0  0  0  0
    2.4205    8.8909   16.0655 H   0  0  0  0  0  0  0  0  0  0  0  0
    1.9133    7.0899   10.2652 C   0  0  1  0  0  0  0  0  0  0  0  0
    2.0198    6.1267   10.4674 H   0  0  0  0  0  0  0  0  0  0  0  0
    1.9650    7.2006    9.2826 H   0  0  0  0  0  0  0  0  0  0  0  0
    4.9570    7.2086   13.4147 C   0  0  2  0  0  0  0  0  0  0  0  0
    4.5125    6.6614   14.0967 H   0  0  0  0  0  0  0  0  0  0  0  0
    5.8567    7.4476   13.7226 H   0  0  0  0  0  0  0  0  0  0  0  0
    5.0213    6.6999   12.5787 H   0  0  0  0  0  0  0  0  0  0  0  0
    5.6277   10.7924   14.4050 C   0  0  2  0  0  0  0  0  0  0  0  0
    6.4099   11.1250   14.9127 H   0  0  0  0  0  0  0  0  0  0  0  0
    5.0718   11.5736   14.1591 H   0  0  0  0  0  0  0  0  0  0  0  0
    0.4972    7.2829   12.2561 C   0  0  2  0  0  0  0  0  0  0  0  0
   -0.3148    7.7059   12.6322 H   0  0  0  0  0  0  0  0  0  0  0  0
    0.4237    6.3057   12.4041 H   0  0  0  0  0  0  0  0  0  0  0  0
    5.7086    8.8766   16.0651 C   0  0  2  0  0  0  0  0  0  0  0  0
    6.2340    9.3599   16.7354 H   0  0  0  0  0  0  0  0  0  0  0  0
    6.3136    8.4332   15.4348 H   0  0  0  0  0  0  0  0  0  0  0  0
    5.1501    8.2067   16.5091 H   0  0  0  0  0  0  0  0  0  0  0  0
   -0.5485    6.7344   10.0478 C   0  0  2  0  0  0  0  0  0  0  0  0
   -0.5079    6.8948    9.0813 H   0  0  0  0  0  0  0  0  0  0  0  0
   -1.4272    7.0035   10.3873 H   0  0  0  0  0  0  0  0  0  0  0  0
   -0.4074    5.7823   10.2287 H   0  0  0  0  0  0  0  0  0  0  0  0
    0.5421    7.5534   10.7477 C   0  0  1  0  0  0  0  0  0  0  0  0
    4.9731    9.4968   12.3386 C   0  0  1  0  0  0  0  0  0  0  0  0
    5.3416    9.0269   11.5489 H   0  0  0  0  0  0  0  0  0  0  0  0
    4.3826   10.2209   12.0104 H   0  0  0  0  0  0  0  0  0  0  0  0
    3.0555    7.8632   10.9129 C   0  0  2  0  0  0  0  0  0  0  0  0
    3.9037    7.3796   10.7489 H   0  0  0  0  0  0  0  0  0  0  0  0
    3.1265    8.7504   10.4799 H   0  0  0  0  0  0  0  0  0  0  0  0
    6.1186   10.1113   13.1275 C   0  0  1  0  0  0  0  0  0  0  0  0
    6.5851   10.7760   12.5609 H   0  0  0  0  0  0  0  0  0  0  0  0
    6.7691    9.4030   13.3645 H   0  0  0  0  0  0  0  0  0  0  0  0
  1  2  1  0
  4  9  1  0
  4  5  1  0
  6  3  2  0
  6 19  1  0
  7  6  1  0
  8 35  1  0
  8  1  1  1
  9 16  1  0
  9 10  1  6
 11  9  1  0
 12 13  1  6
 12 19  1  0
 12  8  1  0
 14  7  2  0
 15 14  1  6
 15 25  1  0
 15 12  1  0
 16 17  1  1
 16 43  1  0
 16 18  1  0
 19 20  1  1
 19 21  1  0
 22 23  1  6
 22 43  1  0
 22 47  1  0
 24 22  1  0
 25 27  1  1
 25 26  1  0
 28 25  1  0
 29 30  1  1
 29  8  1  0
 31 29  1  0
 32 34  1  6
 32 33  1  0
 32  7  1  0
 35 38  1  1
 35 36  1  0
 37 35  1  0
 39 42  1  6
 39 41  1  0
 40 39  1  0
 43 39  1  0
 43 32  1  1
 44 50  1  0
 44 15  1  0
 44 45  1  6
 46 44  1  0
 47 14  1  0
 47 48  1  1
 49 47  1  0
 50 52  1  1
 50 29  1  0
 51 50  1  0
M  END
$$$$
