out_127848
     RDKit          3D

 34 36  0  0  0  0  0  0  0  0999 V2000
    1.5641    2.6142    1.7489 Cl  0  0  0  0  0  0  0  0  0  0  0  0
    4.8301   -1.5911    0.5950 S   0  0  0  0  0  0  0  0  0  0  0  0
    7.0598    0.7701    0.6073 O   0  0  0  0  0  0  0  0  0  0  0  0
    7.0515    0.6136    2.9251 N   0  0  0  0  0  0  0  0  0  0  0  0
    6.4077   -0.1995    3.8398 N   0  0  0  0  0  0  0  0  0  0  0  0
    6.5170   -0.1727    4.6923 H   0  0  0  0  0  0  0  0  0  0  0  0
    1.3394    1.0790   -0.4724 C   0  0  0  0  0  0  0  0  0  0  0  0
    0.6276    1.6232   -0.7186 H   0  0  0  0  0  0  0  0  0  0  0  0
    2.0387    1.3197    0.6939 C   0  0  0  0  0  0  0  0  0  0  0  0
    3.1065    0.5365    1.0503 C   0  0  0  0  0  0  0  0  0  0  0  0
    3.5752    0.7133    1.8333 H   0  0  0  0  0  0  0  0  0  0  0  0
    3.4784   -0.5114    0.2426 C   0  0  0  0  0  0  0  0  0  0  0  0
    5.6741   -0.7695    1.8556 C   0  0  0  0  0  0  0  0  0  0  0  0
    6.6266    0.2539    1.6522 C   0  0  0  0  0  0  0  0  0  0  0  0
    7.9070    1.6537    3.3384 C   0  0  0  0  0  0  0  0  0  0  0  0
    8.4699    1.6376    4.5927 C   0  0  0  0  0  0  0  0  0  0  0  0
    8.2932    0.9368    5.1788 H   0  0  0  0  0  0  0  0  0  0  0  0
    9.2958    2.6711    4.9690 C   0  0  0  0  0  0  0  0  0  0  0  0
    9.6757    2.6639    5.8165 H   0  0  0  0  0  0  0  0  0  0  0  0
    9.5661    3.7071    4.1250 C   0  0  0  0  0  0  0  0  0  0  0  0
   10.1318    4.3959    4.3911 H   0  0  0  0  0  0  0  0  0  0  0  0
    2.7668   -0.7725   -0.9214 C   0  0  0  0  0  0  0  0  0  0  0  0
    3.0059   -1.4870   -1.4664 H   0  0  0  0  0  0  0  0  0  0  0  0
    1.7135    0.0311   -1.2554 C   0  0  0  0  0  0  0  0  0  0  0  0
    1.2409   -0.1428   -2.0373 H   0  0  0  0  0  0  0  0  0  0  0  0
    8.1618    2.6938    2.4780 C   0  0  0  0  0  0  0  0  0  0  0  0
    7.7742    2.7076    1.6317 H   0  0  0  0  0  0  0  0  0  0  0  0
    8.9958    3.7214    2.8801 C   0  0  0  0  0  0  0  0  0  0  0  0
    9.1684    4.4270    2.2999 H   0  0  0  0  0  0  0  0  0  0  0  0
    5.5988   -1.0222    3.2025 C   0  0  0  0  0  0  0  0  0  0  0  0
    4.8175   -2.0414    3.9281 C   0  0  2  0  0  0  0  0  0  0  0  0
    5.1986   -2.9077    3.7733 H   0  0  0  0  0  0  0  0  0  0  0  0
    3.9105   -2.0313    3.6151 H   0  0  0  0  0  0  0  0  0  0  0  0
    4.8335   -1.8479    4.8682 H   0  0  0  0  0  0  0  0  0  0  0  0
  2 13  1  0
  3 14  2  0
  4 15  1  0
  4  5  1  0
  5  6  1  0
  7  9  2  0
  8  7  1  0
  9 10  1  0
  9  1  1  0
 10 11  1  0
 12  2  1  0
 12 10  2  0
 13 30  2  0
 14 13  1  0
 14  4  1  0
 15 16  2  0
 16 18  1  0
 16 17  1  0
 18 19  1  0
 20 21  1  0
 20 18  2  0
 22 12  1  0
 23 22  1  0
 24 22  2  0
 24  7  1  0
 25 24  1  0
 26 28  2  0
 26 15  1  0
 27 26  1  0
 28 20  1  0
 29 28  1  0
 30  5  1  0
 30 31  1  0
 31 34  1  1
 32 31  1  0
 33 31  1  0
M  END
$$$$
