out_1378484
     RDKit          3D

 30 31  0  0  0  0  0  0  0  0999 V2000
    9.3201   13.1638    9.0238 N   0  0  0  0  0  0  0  0  0  0  0  0
    9.0531   11.8718    8.8333 C   0  0  0  0  0  0  0  0  0  0  0  0
    8.4068   11.6324    8.1795 H   0  0  0  0  0  0  0  0  0  0  0  0
   10.9120   12.5680   10.6868 N   0  0  0  0  0  0  0  0  0  0  0  0
   10.2367   13.4476    9.9474 C   0  0  0  0  0  0  0  0  0  0  0  0
   10.4272   14.3663   10.0932 H   0  0  0  0  0  0  0  0  0  0  0  0
    8.1796    2.9499    7.7597 N   0  0  0  0  0  0  0  0  0  0  0  0
   10.6259   11.2801   10.4815 C   0  0  0  0  0  0  0  0  0  0  0  0
   11.0882   10.6249   10.9912 H   0  0  0  0  0  0  0  0  0  0  0  0
    9.6799   10.8589    9.5529 C   0  0  0  0  0  0  0  0  0  0  0  0
    9.3581    9.4785    9.3600 C   0  0  0  0  0  0  0  0  0  0  0  0
    9.0733    8.3294    9.1851 C   0  0  0  0  0  0  0  0  0  0  0  0
    8.7761    6.9570    8.9058 C   0  0  0  0  0  0  0  0  0  0  0  0
    9.4956    5.9219    9.5114 C   0  0  0  0  0  0  0  0  0  0  0  0
   10.1346    6.1295   10.1832 H   0  0  0  0  0  0  0  0  0  0  0  0
    9.2969    4.6026    9.1510 C   0  0  0  0  0  0  0  0  0  0  0  0
    9.7954    3.9172    9.5799 H   0  0  0  0  0  0  0  0  0  0  0  0
    8.3603    4.2612    8.1521 C   0  0  0  0  0  0  0  0  0  0  0  0
    7.6024    5.3015    7.5861 C   0  0  0  0  0  0  0  0  0  0  0  0
    6.9399    5.0960    6.9359 H   0  0  0  0  0  0  0  0  0  0  0  0
    7.8057    6.6199    7.9592 C   0  0  0  0  0  0  0  0  0  0  0  0
    7.2776    7.3048    7.5660 H   0  0  0  0  0  0  0  0  0  0  0  0
    9.1358    1.9408    8.1937 C   0  0  2  0  0  0  0  0  0  0  0  0
   10.0285    2.1727    7.8627 H   0  0  0  0  0  0  0  0  0  0  0  0
    8.8726    1.0662    7.8366 H   0  0  0  0  0  0  0  0  0  0  0  0
    9.1496    1.9026    9.1725 H   0  0  0  0  0  0  0  0  0  0  0  0
    7.4389    2.6731    6.5360 C   0  0  2  0  0  0  0  0  0  0  0  0
    6.5267    3.0202    6.6205 H   0  0  0  0  0  0  0  0  0  0  0  0
    7.4081    1.7055    6.3842 H   0  0  0  0  0  0  0  0  0  0  0  0
    7.8852    3.1081    5.7792 H   0  0  0  0  0  0  0  0  0  0  0  0
  1  5  2  0
  2  1  1  0
  2 10  2  0
  3  2  1  0
  5  6  1  0
  5  4  1  0
  7 18  1  0
  7 23  1  0
  8  4  2  0
  8  9  1  0
 10  8  1  0
 11 10  1  0
 12 11  3  0
 13 12  1  0
 13 14  2  0
 14 15  1  0
 16 14  1  0
 16 17  1  0
 18 16  2  0
 19 21  2  0
 19 18  1  0
 20 19  1  0
 21 13  1  0
 22 21  1  0
 23 26  1  1
 24 23  1  0
 25 23  1  0
 27 28  1  1
 27  7  1  0
 29 27  1  0
 30 27  1  0
M  END
$$$$
