out_1130246
     RDKit          3D

 35 38  0  0  1  0  0  0  0  0999 V2000
    1.8762    9.0799    9.7424 O   0  0  0  0  0  0  0  0  0  0  0  0
    2.1444   13.6220    9.3280 O   0  0  0  0  0  0  0  0  0  0  0  0
    2.1991   11.3596    9.8371 N   0  0  0  0  0  0  0  0  0  0  0  0
    1.0425   12.0209    8.0817 N   0  0  0  0  0  0  0  0  0  0  0  0
    0.5859    6.0618    1.7455 N   0  0  0  0  0  0  0  0  0  0  0  0
    1.7558    6.6134    1.3592 N   0  0  0  0  0  0  0  0  0  0  0  0
    1.0786    9.7988    6.9084 C   0  0  0  0  0  0  0  0  0  0  0  0
    1.1601    7.3955    3.4026 C   0  0  0  0  0  0  0  0  0  0  0  0
    1.6877   10.2134    9.3370 C   0  0  0  0  0  0  0  0  0  0  0  0
    2.1165    9.9571    5.9984 C   0  0  0  0  0  0  0  0  0  0  0  0
    2.7761   10.5978    6.1373 H   0  0  0  0  0  0  0  0  0  0  0  0
    1.1572    8.1806    4.6446 C   0  0  0  0  0  0  0  0  0  0  0  0
    0.2135    6.5076    2.9542 C   0  0  0  0  0  0  0  0  0  0  0  0
   -0.5566    6.2576    3.4119 H   0  0  0  0  0  0  0  0  0  0  0  0
    0.1041    8.8309    6.7087 C   0  0  0  0  0  0  0  0  0  0  0  0
    1.8157   12.4807    9.0850 C   0  0  0  0  0  0  0  0  0  0  0  0
   -0.8837    8.8394    7.8489 C   0  0  2  0  0  0  0  0  0  0  0  0
   -0.6820    8.1431    8.4933 H   0  0  0  0  0  0  0  0  0  0  0  0
   -1.7915    8.7228    7.5279 H   0  0  0  0  0  0  0  0  0  0  0  0
   -0.6842   10.2290    8.4542 C   0  0  2  0  0  0  0  0  0  0  0  0
   -0.8486   10.2121    9.4102 H   0  0  0  0  0  0  0  0  0  0  0  0
   -1.2870   10.8697    8.0454 H   0  0  0  0  0  0  0  0  0  0  0  0
    0.1268    8.0274    5.5812 C   0  0  0  0  0  0  0  0  0  0  0  0
   -0.5373    7.3905    5.4464 H   0  0  0  0  0  0  0  0  0  0  0  0
    2.1479    9.1415    4.8808 C   0  0  0  0  0  0  0  0  0  0  0  0
    2.8447    9.2340    4.2716 H   0  0  0  0  0  0  0  0  0  0  0  0
    0.7918   10.6016    8.1597 C   0  0  1  0  0  0  0  0  0  0  0  0
    2.0909    7.4138    2.3647 C   0  0  0  0  0  0  0  0  0  0  0  0
    2.8633    7.9313    2.3752 H   0  0  0  0  0  0  0  0  0  0  0  0
   -0.0983    5.0930    0.9162 C   0  0  2  0  0  0  0  0  0  0  0  0
   -0.0478    5.3659   -0.0029 H   0  0  0  0  0  0  0  0  0  0  0  0
   -1.0190    5.0369    1.1829 H   0  0  0  0  0  0  0  0  0  0  0  0
    0.3172    4.2338    1.0183 H   0  0  0  0  0  0  0  0  0  0  0  0
    0.6807   12.5321    7.4959 H   0  0  0  0  0  0  0  0  0  0  0  0
    2.7285   11.4197   10.5282 H   0  0  0  0  0  0  0  0  0  0  0  0
  3 35  1  0
 27  4  1  6
  4 16  1  0
  5 13  1  0
  6  5  1  0
  6 28  2  0
  8 12  1  0
  9  1  2  0
  9  3  1  0
 10 11  1  0
 10  7  2  0
 12 25  2  0
 12 23  1  0
 13  8  2  0
 13 14  1  0
 15  7  1  0
 15 17  1  0
 16  2  2  0
 16  3  1  0
 17 20  1  0
 17 18  1  1
 19 17  1  0
 20 21  1  1
 22 20  1  0
 23 15  2  0
 24 23  1  0
 25 10  1  0
 26 25  1  0
 27  7  1  0
 27 20  1  0
 27  9  1  0
 28 29  1  0
 28  8  1  0
 30 33  1  6
 30 32  1  0
 30  5  1  0
 31 30  1  0
 34  4  1  0
M  END
$$$$
