out_197847
     RDKit          3D

 16 16  0  0  0  0  0  0  0  0999 V2000
    1.2612    5.3563    8.5696 H   0  0  0  0  0  0  0  0  0  0  0  0
   -2.9162    6.5048   11.0366 H   0  0  0  0  0  0  0  0  0  0  0  0
   -1.0702    5.5860    9.3865 H   0  0  0  0  0  0  0  0  0  0  0  0
   -0.6509    9.8356    8.7998 H   0  0  0  0  0  0  0  0  0  0  0  0
    1.6283    9.4030    7.9688 H   0  0  0  0  0  0  0  0  0  0  0  0
   -3.2111    6.0196    9.5257 H   0  0  0  0  0  0  0  0  0  0  0  0
   -4.2538    7.0737   10.1632 H   0  0  0  0  0  0  0  0  0  0  0  0
   -2.9036    9.1228    9.6155 O   0  0  0  0  0  0  0  0  0  0  0  0
    1.5277    7.3689    8.2096 N   0  0  0  0  0  0  0  0  0  0  0  0
   -2.4542    7.9936    9.6343 C   0  0  0  0  0  0  0  0  0  0  0  0
   -0.4987    6.4747    9.0855 C   0  0  0  0  0  0  0  0  0  0  0  0
    0.7877    6.3331    8.6039 C   0  0  0  0  0  0  0  0  0  0  0  0
   -3.2694    6.8236   10.0982 C   0  0  2  0  0  0  0  0  0  0  0  0
   -1.0586    7.7478    9.1445 C   0  0  0  0  0  0  0  0  0  0  0  0
   -0.2772    8.8341    8.7526 C   0  0  0  0  0  0  0  0  0  0  0  0
    1.0010    8.5883    8.2769 C   0  0  0  0  0  0  0  0  0  0  0  0
  1 12  1  0
  5 16  1  0
 13  6  1  6
  8 10  2  0
  9 16  2  0
  9 12  1  0
 10 13  1  0
 11 14  1  0
 11  3  1  0
 12 11  2  0
 13  7  1  0
 13  2  1  0
 14 10  1  0
 15  4  1  0
 15 14  2  0
 16 15  1  0
M  END
$$$$
