out_1008405
     RDKit          3D

 43 45  0  0  0  0  0  0  0  0999 V2000
    0.8158    4.0290   11.7580 S   0  0  0  0  0  0  0  0  0  0  0  0
    1.4853    0.8326   10.4407 F   0  0  0  0  0  0  0  0  0  0  0  0
    6.5538    2.6897   10.3290 F   0  0  0  0  0  0  0  0  0  0  0  0
    5.4793    1.6250    8.1222 F   0  0  0  0  0  0  0  0  0  0  0  0
    3.3866    6.7932   14.8831 O   0  0  0  0  0  0  0  0  0  0  0  0
    4.0440    2.3121   15.0447 O   0  0  0  0  0  0  0  0  0  0  0  0
    2.0942    5.4847   13.5405 N   0  0  0  0  0  0  0  0  0  0  0  0
    3.6273    4.5476   15.0879 N   0  0  0  0  0  0  0  0  0  0  0  0
    2.5735    3.1687   13.5278 N   0  0  0  0  0  0  0  0  0  0  0  0
    6.2908    4.5956   14.2505 N   0  0  0  0  0  0  0  0  0  0  0  0
    7.6446    4.4083   14.2083 N   0  0  0  0  0  0  0  0  0  0  0  0
    7.1220    4.3418   16.3253 N   0  0  0  0  0  0  0  0  0  0  0  0
    3.0511    5.6843   14.5014 C   0  0  0  0  0  0  0  0  0  0  0  0
    1.9200    4.2961   13.0694 C   0  0  0  0  0  0  0  0  0  0  0  0
    3.4577    3.2770   14.5937 C   0  0  0  0  0  0  0  0  0  0  0  0
    4.6696    4.7024   16.1078 C   0  0  2  0  0  0  0  0  0  0  0  0
    4.5372    4.0397   16.8026 H   0  0  0  0  0  0  0  0  0  0  0  0
    4.5913    5.5802   16.5128 H   0  0  0  0  0  0  0  0  0  0  0  0
    6.0414    4.5468   15.5355 C   0  0  0  0  0  0  0  0  0  0  0  0
    8.0983    4.2590   15.4329 C   0  0  0  0  0  0  0  0  0  0  0  0
    8.9914    4.1125   15.6458 H   0  0  0  0  0  0  0  0  0  0  0  0
    8.3575    4.3952   12.9522 C   0  0  2  0  0  0  0  0  0  0  0  0
    8.0134    3.6921   12.3971 H   0  0  0  0  0  0  0  0  0  0  0  0
    9.2914    4.2458   13.1166 H   0  0  0  0  0  0  0  0  0  0  0  0
    8.2411    5.2390   12.5099 H   0  0  0  0  0  0  0  0  0  0  0  0
    2.4615    1.8610   12.8567 C   0  0  2  0  0  0  0  0  0  0  0  0
    1.5308    1.6883   12.6473 H   0  0  0  0  0  0  0  0  0  0  0  0
    2.7662    1.1655   13.4603 H   0  0  0  0  0  0  0  0  0  0  0  0
    3.2698    1.8076   11.5946 C   0  0  0  0  0  0  0  0  0  0  0  0
    4.5716    2.2773   11.5451 C   0  0  0  0  0  0  0  0  0  0  0  0
    4.9643    2.6402   12.3052 H   0  0  0  0  0  0  0  0  0  0  0  0
    5.2774    2.2092   10.3827 C   0  0  0  0  0  0  0  0  0  0  0  0
    4.7442    1.6830    9.2499 C   0  0  0  0  0  0  0  0  0  0  0  0
    3.4638    1.1978    9.2499 C   0  0  0  0  0  0  0  0  0  0  0  0
    3.0816    0.8267    8.4876 H   0  0  0  0  0  0  0  0  0  0  0  0
    2.7748    1.2884   10.4320 C   0  0  0  0  0  0  0  0  0  0  0  0
    0.3652    5.7238   11.3536 C   0  0  1  0  0  0  0  0  0  0  0  0
   -0.2085    6.0854   12.0467 H   0  0  0  0  0  0  0  0  0  0  0  0
    1.1638    6.2725   11.3036 H   0  0  0  0  0  0  0  0  0  0  0  0
   -0.3462    5.7532   10.0472 C   0  0  2  0  0  0  0  0  0  0  0  0
    0.2092    5.3581    9.3703 H   0  0  0  0  0  0  0  0  0  0  0  0
   -0.5420    6.6625    9.8085 H   0  0  0  0  0  0  0  0  0  0  0  0
   -1.1657    5.2576   10.1168 H   0  0  0  0  0  0  0  0  0  0  0  0
  1 14  1  0
  3 32  1  0
  4 33  1  0
  7 13  1  0
  8 16  1  0
  9 15  1  0
 10 19  2  0
 11 10  1  0
 11 20  1  0
 13  5  2  0
 13  8  1  0
 14  9  1  0
 14  7  2  0
 15  6  2  0
 15  8  1  0
 16 18  1  1
 16 17  1  0
 19 16  1  0
 19 12  1  0
 20 21  1  0
 20 12  2  0
 22 24  1  1
 22 11  1  0
 23 22  1  0
 25 22  1  0
 26 28  1  1
 26  9  1  0
 27 26  1  0
 29 26  1  0
 30 29  2  0
 30 31  1  0
 32 30  1  0
 33 32  2  0
 34 33  1  0
 34 36  2  0
 35 34  1  0
 36  2  1  0
 36 29  1  0
 37  1  1  0
 37 38  1  1
 39 37  1  0
 40 43  1  1
 40 37  1  0
 41 40  1  0
 42 40  1  0
M  END
$$$$
