
     RDKit          3D

  5  4  0  0  0  0  0  0  0  0999 V2000
   -2.1729   -0.3996    0.3594 C   0  0  0  0  0  0  0  0  0  0  0  0
   -1.2600    0.3541   -0.5953 C   0  0  0  0  0  0  0  0  0  0  0  0
    0.0911    0.7276    0.0182 C   0  0  0  0  0  0  0  0  0  0  0  0
    0.9606   -0.4851    0.3525 C   0  0  0  0  0  0  0  0  0  0  0  0
    2.3308   -0.0619    0.8600 C   0  0  0  0  0  0  0  0  0  0  0  0
  1  2  1  0
  2  3  1  0
  3  4  1  0
  4  5  1  0
M  END
